
     RDKit          3D

 20 20  0  0  0  0  0  0  0  0999 V2000
  135.2115  128.1261  120.2523 C   0  0  0  0  0  0  0  0  0  0  0  0
  134.1888  129.0038  120.0608 C   0  0  0  0  0  0  0  0  0  0  0  0
  134.1631  130.1250  120.4182 C   0  0  0  0  0  0  0  0  0  0  0  0
  133.1250  131.0631  120.1740 C   0  0  0  0  0  0  0  0  0  0  0  0
  132.9048  132.3021  120.5320 C   0  0  0  0  0  0  0  0  0  0  0  0
  132.1461  130.4425  119.3148 C   0  0  0  0  0  0  0  0  0  0  0  0
  130.8598  130.8429  119.1722 C   0  0  0  0  0  0  0  0  0  0  0  0
  129.7328  130.0381  118.7979 C   0  0  0  0  0  0  0  0  0  0  0  0
  128.4723  130.2913  119.4385 C   0  0  0  0  0  0  0  0  0  0  0  0
  127.4224  129.5075  119.2325 C   0  0  0  0  0  0  0  0  0  0  0  0
  131.8432  132.7926  120.2575 C   0  0  0  0  0  0  0  0  0  0  0  0
  128.2242  131.2491  120.0852 C   0  0  0  0  0  0  0  0  0  0  0  0
  131.3167  134.1265  120.3705 C   0  0  0  0  0  0  0  0  0  0  0  0
  126.9321  131.9304  120.1208 C   0  0  0  0  0  0  0  0  0  0  0  0
  127.5543  128.2368  118.7344 C   0  0  0  0  0  0  0  0  0  0  0  0
  130.3981  134.6448  119.7025 C   0  0  0  0  0  0  0  0  0  0  0  0
  126.1080  131.3329  119.1099 C   0  0  0  0  0  0  0  0  0  0  0  0
  126.5656  130.1323  118.4520 C   0  0  0  0  0  0  0  0  0  0  0  0
  124.8980  132.0278  118.6575 C   0  0  0  0  0  0  0  0  0  0  0  0
  128.2126  127.7788  117.5500 C   0  0  0  0  0  0  0  0  0  0  0  0
  1  2  1  0
  2  3  2  3
  3  4  1  0
  4  5  1  0
  4  6  2  3
  6  7  1  0
  7  8  2  3
  8  9  1  0
  9 10  2  0
  5 11  2  3
  9 12  1  0
 11 13  1  0
 12 14  2  0
 10 15  1  0
 13 16  1  0
 14 17  1  0
 10 18  1  0
 17 18  2  0
 17 19  1  0
 15 20  1  0
M  END
$$$$

     RDKit          3D

 20 22  0  0  0  0  0  0  0  0999 V2000
  131.9586  130.8656  121.2311 C   0  0  0  0  0  0  0  0  0  0  0  0
  131.0557  130.5577  120.1828 C   0  0  0  0  0  0  0  0  0  0  0  0
  129.9777  130.2649  120.1073 C   0  0  0  0  0  0  0  0  0  0  0  0
  133.2666  130.8760  121.1185 C   0  0  0  0  0  0  0  0  0  0  0  0
  131.1775  130.9903  122.1493 C   0  0  0  0  0  0  0  0  0  0  0  0
  131.4791  131.4135  123.3753 C   0  0  0  0  0  0  0  0  0  0  0  0
  132.8547  131.6923  123.7452 C   0  0  0  0  0  0  0  0  0  0  0  0
  130.4337  131.5551  124.2443 C   0  0  0  0  0  0  0  0  0  0  0  0
  130.3679  131.7871  125.3869 O   0  0  0  0  0  0  0  0  0  0  0  0
  129.2490  131.2395  123.5864 N   0  0  0  0  0  0  0  0  0  0  0  0
  129.3450  131.0630  122.2159 C   0  0  0  0  0  0  0  0  0  0  0  0
  133.8239  130.3928  120.2902 C   0  0  0  0  0  0  0  0  0  0  0  0
  135.1406  130.2050  120.0537 C   0  0  0  0  0  0  0  0  0  0  0  0
  136.0731  130.1983  121.0028 C   0  0  0  0  0  0  0  0  0  0  0  0
  135.4709  129.6245  118.8324 C   0  0  0  0  0  0  0  0  0  0  0  0
  136.7208  129.3072  118.5643 C   0  0  0  0  0  0  0  0  0  0  0  0
  137.6289  129.4601  119.6463 C   0  0  0  0  0  0  0  0  0  0  0  0
  137.1904  129.9192  120.9323 C   0  0  0  0  0  0  0  0  0  0  0  0
  129.1623  130.3932  121.2871 C   0  0  0  0  0  0  0  0  0  0  0  0
  129.4551  129.7447  118.9348 C   0  0  0  0  0  0  0  0  0  0  0  0
  1  2  1  0
  2  3  2  0
  1  4  1  0
  1  5  2  0
  5  6  1  0
  6  7  2  0
  6  8  1  0
  8  9  2  0
  8 10  1  0
  5 11  1  0
 10 11  2  0
  4 12  2  3
 12 13  1  0
 13 14  2  0
 13 15  1  0
 15 16  2  0
 16 17  1  0
 14 18  1  0
 17 18  2  0
  3 19  1  0
 11 19  1  0
  3 20  1  0
M  END
$$$$

     RDKit          3D

 20 22  0  0  0  0  0  0  0  0999 V2000
  135.2115  128.1261  120.2523 C   0  0  0  0  0  0  0  0  0  0  0  0
  134.1888  129.0038  120.0608 C   0  0  0  0  0  0  0  0  0  0  0  0
  134.1631  130.1250  120.4182 C   0  0  0  0  0  0  0  0  0  0  0  0
  133.1250  131.0631  120.1740 C   0  0  0  0  0  0  0  0  0  0  0  0
  132.9048  132.3021  120.5320 C   0  0  0  0  0  0  0  0  0  0  0  0
  131.9195  130.8133  119.2785 C   0  0  0  0  0  0  0  0  0  0  0  0
  131.6336  132.9750  120.1385 C   0  0  0  0  0  0  0  0  0  0  0  0
  130.6576  131.2108  119.5652 C   0  0  0  0  0  0  0  0  0  0  0  0
  131.2386  134.2396  120.2956 C   0  0  0  0  0  0  0  0  0  0  0  0
  129.4802  130.5897  119.2287 C   0  0  0  0  0  0  0  0  0  0  0  0
  129.4475  129.2479  119.0278 C   0  0  0  0  0  0  0  0  0  0  0  0
  128.4546  131.2060  119.6660 N   0  0  0  0  0  0  0  0  0  0  0  0
  127.2189  130.5811  119.2440 C   0  0  0  0  0  0  0  0  0  0  0  0
  136.3447  128.6803  120.9111 C   0  0  0  0  0  0  0  0  0  0  0  0
  126.1472  131.0516  119.4937 N   0  0  0  0  0  0  0  0  0  0  0  0
  136.2613  129.9719  121.4366 C   0  0  0  0  0  0  0  0  0  0  0  0
  127.3483  129.4791  118.5983 N   0  0  0  0  0  0  0  0  0  0  0  0
  135.0378  130.6100  121.3017 C   0  0  0  0  0  0  0  0  0  0  0  0
  128.5858  128.7378  118.4551 C   0  0  0  0  0  0  0  0  0  0  0  0
  130.4288  132.2799  120.3882 C   0  0  0  0  0  0  0  0  0  0  0  0
  1  2  1  0
  2  3  2  0
  3  4  1  0
  4  5  1  0
  4  6  2  0
  5  7  2  0
  6  8  1  0
  7  9  1  0
  8 10  1  0
 10 11  2  0
 10 12  1  0
 12 13  2  0
  1 14  2  0
 13 15  1  0
 14 16  1  0
 13 17  1  0
  3 18  1  0
 16 18  2  0
 11 19  1  0
 17 19  2  0
  7 20  1  0
  8 20  2  0
M  END
$$$$

     RDKit          3D

 20 22  0  0  0  0  0  0  0  0999 V2000
  135.2115  128.1261  120.2523 C   0  0  0  0  0  0  0  0  0  0  0  0
  134.1888  129.0038  120.0608 C   0  0  0  0  0  0  0  0  0  0  0  0
  134.1631  130.1250  120.4182 C   0  0  0  0  0  0  0  0  0  0  0  0
  133.1250  131.0631  120.1740 C   0  0  0  0  0  0  0  0  0  0  0  0
  132.9048  132.3021  120.5320 C   0  0  0  0  0  0  0  0  0  0  0  0
  131.9195  130.8133  119.2785 C   0  0  0  0  0  0  0  0  0  0  0  0
  131.6336  132.9750  120.1385 C   0  0  0  0  0  0  0  0  0  0  0  0
  130.6576  131.2108  119.5652 C   0  0  0  0  0  0  0  0  0  0  0  0
  131.2386  134.2396  120.2956 C   0  0  0  0  0  0  0  0  0  0  0  0
  129.4802  130.5897  119.2287 C   0  0  0  0  0  0  0  0  0  0  0  0
  129.4475  129.2479  119.0278 C   0  0  0  0  0  0  0  0  0  0  0  0
  128.4546  131.2060  119.6660 N   0  0  0  0  0  0  0  0  0  0  0  0
  127.2189  130.5811  119.2440 C   0  0  0  0  0  0  0  0  0  0  0  0
  126.1616  131.0448  119.5253 N   0  0  0  0  0  0  0  0  0  0  0  0
  136.3517  128.6857  120.8910 C   0  0  0  0  0  0  0  0  0  0  0  0
  128.0888  128.7422  118.8124 C   0  0  0  0  0  0  0  0  0  0  0  0
  136.2720  129.9801  121.4119 C   0  0  0  0  0  0  0  0  0  0  0  0
  135.0486  130.6204  121.2910 C   0  0  0  0  0  0  0  0  0  0  0  0
  127.2766  129.3898  118.4804 C   0  0  0  0  0  0  0  0  0  0  0  0
  130.3662  132.1752  120.4290 C   0  0  0  0  0  0  0  0  0  0  0  0
  1  2  1  0
  2  3  2  0
  3  4  1  0
  4  5  1  0
  4  6  2  0
  5  7  2  0
  6  8  1  0
  7  9  1  0
  8 10  1  0
 10 11  2  0
 10 12  1  0
 12 13  2  0
 13 14  1  0
  1 15  2  0
 11 16  1  0
 15 17  1  0
  3 18  1  0
 17 18  2  0
 13 19  1  0
 16 19  2  0
  7 20  1  0
  8 20  2  0
M  END
$$$$

     RDKit          3D

 20 22  0  0  0  0  0  0  0  0999 V2000
  131.9586  130.8656  121.2311 C   0  0  0  0  0  0  0  0  0  0  0  0
  131.0557  130.5577  120.1828 C   0  0  0  0  0  0  0  0  0  0  0  0
  129.9777  130.2649  120.1073 C   0  0  0  0  0  0  0  0  0  0  0  0
  133.2666  130.8760  121.1185 C   0  0  0  0  0  0  0  0  0  0  0  0
  131.3239  131.1128  122.4339 C   0  0  0  0  0  0  0  0  0  0  0  0
  131.8619  131.6526  123.5203 C   0  0  0  0  0  0  0  0  0  0  0  0
  131.1275  131.8806  124.6731 C   0  0  0  0  0  0  0  0  0  0  0  0
  129.8697  131.1842  124.5952 C   0  0  0  0  0  0  0  0  0  0  0  0
  129.9645  130.6433  122.3963 C   0  0  0  0  0  0  0  0  0  0  0  0
  129.2378  130.6517  123.5891 C   0  0  0  0  0  0  0  0  0  0  0  0
  129.0696  129.8456  119.0525 C   0  0  0  0  0  0  0  0  0  0  0  0
  133.6751  130.2848  120.1519 C   0  0  0  0  0  0  0  0  0  0  0  0
  134.8757  130.0480  119.7501 C   0  0  0  0  0  0  0  0  0  0  0  0
  135.9481  130.4326  120.3757 C   0  0  0  0  0  0  0  0  0  0  0  0
  129.2646  130.2940  121.2002 C   0  0  0  0  0  0  0  0  0  0  0  0
  135.1149  129.2695  118.5004 C   0  0  0  0  0  0  0  0  0  0  0  0
  131.6467  132.2820  125.7786 O   0  0  0  0  0  0  0  0  0  0  0  0
  136.3976  129.1550  118.0662 C   0  0  0  0  0  0  0  0  0  0  0  0
  137.3680  129.8442  118.7223 C   0  0  0  0  0  0  0  0  0  0  0  0
  137.0055  130.4745  119.9879 C   0  0  0  0  0  0  0  0  0  0  0  0
  1  2  1  0
  2  3  2  0
  1  4  1  0
  1  5  2  0
  5  6  1  0
  6  7  2  0
  7  8  1  0
  5  9  1  0
  8 10  2  0
  9 10  1  0
  3 11  1  0
  4 12  2  3
 12 13  1  0
 13 14  2  0
  3 15  1  0
  9 15  2  0
 13 16  1  0
  7 17  1  0
 16 18  2  0
 18 19  1  0
 14 20  1  0
 19 20  2  0
M  END
$$$$

     RDKit          3D

 20 22  0  0  0  0  0  0  0  0999 V2000
  135.2115  128.1261  120.2523 C   0  0  0  0  0  0  0  0  0  0  0  0
  134.1888  129.0038  120.0608 C   0  0  0  0  0  0  0  0  0  0  0  0
  134.1631  130.1250  120.4182 C   0  0  0  0  0  0  0  0  0  0  0  0
  133.1250  131.0631  120.1740 C   0  0  0  0  0  0  0  0  0  0  0  0
  132.9048  132.3021  120.5320 C   0  0  0  0  0  0  0  0  0  0  0  0
  131.9195  130.8133  119.2785 C   0  0  0  0  0  0  0  0  0  0  0  0
  131.6336  132.9750  120.1385 C   0  0  0  0  0  0  0  0  0  0  0  0
  130.6576  131.2108  119.5652 C   0  0  0  0  0  0  0  0  0  0  0  0
  136.3904  128.7445  120.7327 C   0  0  0  0  0  0  0  0  0  0  0  0
  129.4235  130.5748  119.1457 C   0  0  0  0  0  0  0  0  0  0  0  0
  136.3212  130.0585  121.1738 C   0  0  0  0  0  0  0  0  0  0  0  0
  135.0981  130.7245  121.1367 C   0  0  0  0  0  0  0  0  0  0  0  0
  129.3132  129.2744  118.9402 C   0  0  0  0  0  0  0  0  0  0  0  0
  128.1917  131.3346  119.3606 C   0  0  0  0  0  0  0  0  0  0  0  0
  127.9624  132.4968  119.8686 N   0  0  0  0  0  0  0  0  0  0  0  0
  130.2964  132.0389  120.5826 C   0  0  0  0  0  0  0  0  0  0  0  0
  127.1284  130.5823  118.9368 N   0  0  0  0  0  0  0  0  0  0  0  0
  127.3586  129.3006  118.6882 C   0  0  0  0  0  0  0  0  0  0  0  0
  126.4344  128.4558  118.0955 C   0  0  0  0  0  0  0  0  0  0  0  0
  128.4084  128.6510  118.9968 C   0  0  0  0  0  0  0  0  0  0  0  0
  1  2  1  0
  2  3  2  0
  3  4  1  0
  4  5  1  0
  4  6  2  0
  5  7  2  0
  6  8  1  0
  1  9  2  0
  8 10  1  0
  9 11  1  0
  3 12  1  0
 11 12  2  0
 10 13  2  0
 10 14  1  0
 14 15  1  0
  7 16  1  0
  8 16  2  0
 14 17  2  0
 17 18  1  0
 18 19  1  0
 13 20  1  0
 18 20  2  0
M  END
$$$$

     RDKit          3D

 20 22  0  0  0  0  0  0  0  0999 V2000
  131.9586  130.8656  121.2311 C   0  0  0  0  0  0  0  0  0  0  0  0
  131.0557  130.5577  120.1828 C   0  0  0  0  0  0  0  0  0  0  0  0
  129.9777  130.2649  120.1073 C   0  0  0  0  0  0  0  0  0  0  0  0
  133.2666  130.8760  121.1185 C   0  0  0  0  0  0  0  0  0  0  0  0
  131.1775  130.9903  122.1493 C   0  0  0  0  0  0  0  0  0  0  0  0
  131.4791  131.4135  123.3753 C   0  0  0  0  0  0  0  0  0  0  0  0
  132.8547  131.6923  123.7452 C   0  0  0  0  0  0  0  0  0  0  0  0
  130.4337  131.5551  124.2443 C   0  0  0  0  0  0  0  0  0  0  0  0
  130.3679  131.7871  125.3869 O   0  0  0  0  0  0  0  0  0  0  0  0
  129.2490  131.2395  123.5864 N   0  0  0  0  0  0  0  0  0  0  0  0
  129.3450  131.0630  122.2159 C   0  0  0  0  0  0  0  0  0  0  0  0
  133.8239  130.3928  120.2902 C   0  0  0  0  0  0  0  0  0  0  0  0
  135.1406  130.2050  120.0537 C   0  0  0  0  0  0  0  0  0  0  0  0
  136.0731  130.1983  121.0028 C   0  0  0  0  0  0  0  0  0  0  0  0
  135.4709  129.6245  118.8324 C   0  0  0  0  0  0  0  0  0  0  0  0
  136.7208  129.3072  118.5643 C   0  0  0  0  0  0  0  0  0  0  0  0
  137.6289  129.4601  119.6463 C   0  0  0  0  0  0  0  0  0  0  0  0
  137.1904  129.9192  120.9323 C   0  0  0  0  0  0  0  0  0  0  0  0
  129.1623  130.3932  121.2871 N   0  0  0  0  0  0  0  0  0  0  0  0
  129.2706  129.6769  119.0230 C   0  0  0  0  0  0  0  0  0  0  0  0
  1  2  1  0
  2  3  2  0
  1  4  1  0
  1  5  2  0
  5  6  1  0
  6  7  2  0
  6  8  1  0
  8  9  2  0
  8 10  1  0
  5 11  1  0
 10 11  2  0
  4 12  2  3
 12 13  1  0
 13 14  2  0
 13 15  1  0
 15 16  2  0
 16 17  1  0
 14 18  1  0
 17 18  2  0
  3 19  1  0
 11 19  1  0
  3 20  1  0
M  END
$$$$

     RDKit          3D

 20 20  0  0  0  0  0  0  0  0999 V2000
  131.9586  130.8656  121.2311 C   0  0  0  0  0  0  0  0  0  0  0  0
  131.0557  130.5577  120.1828 C   0  0  0  0  0  0  0  0  0  0  0  0
  129.9777  130.2649  120.1073 C   0  0  0  0  0  0  0  0  0  0  0  0
  133.2666  130.8760  121.1185 C   0  0  0  0  0  0  0  0  0  0  0  0
  131.1775  130.9903  122.1493 C   0  0  0  0  0  0  0  0  0  0  0  0
  131.4791  131.4135  123.3753 C   0  0  0  0  0  0  0  0  0  0  0  0
  132.8547  131.6923  123.7452 C   0  0  0  0  0  0  0  0  0  0  0  0
  130.4337  131.5551  124.2443 C   0  0  0  0  0  0  0  0  0  0  0  0
  130.3679  131.7871  125.3869 O   0  0  0  0  0  0  0  0  0  0  0  0
  129.2490  131.2395  123.5864 N   0  0  0  0  0  0  0  0  0  0  0  0
  129.3450  131.0630  122.2159 C   0  0  0  0  0  0  0  0  0  0  0  0
  133.8239  130.3928  120.2902 C   0  0  0  0  0  0  0  0  0  0  0  0
  135.1406  130.2050  120.0537 C   0  0  0  0  0  0  0  0  0  0  0  0
  136.0731  130.1983  121.0028 C   0  0  0  0  0  0  0  0  0  0  0  0
  129.0732  129.8546  119.0123 C   0  0  0  0  0  0  0  0  0  0  0  0
  127.8114  129.4453  119.3213 C   0  0  0  0  0  0  0  0  0  0  0  0
  126.7112  129.8553  118.5025 C   0  0  0  0  0  0  0  0  0  0  0  0
  135.5709  129.7012  118.7396 C   0  0  0  0  0  0  0  0  0  0  0  0
  134.6400  129.6111  117.7167 C   0  0  0  0  0  0  0  0  0  0  0  0
  134.8673  129.0566  116.5312 C   0  0  0  0  0  0  0  0  0  0  0  0
  1  2  1  0
  2  3  2  3
  1  4  1  0
  1  5  2  3
  5  6  1  0
  6  7  2  0
  6  8  1  0
  8  9  2  0
  8 10  1  0
  5 11  1  0
 10 11  2  0
  4 12  2  3
 12 13  1  0
 13 14  2  0
  3 15  1  0
 15 16  1  0
 16 17  1  0
 13 18  1  0
 18 19  2  3
 19 20  1  0
M  END
$$$$

     RDKit          3D

 20 21  0  0  0  0  0  0  0  0999 V2000
  135.2115  128.1261  120.2523 C   0  0  0  0  0  0  0  0  0  0  0  0
  134.1888  129.0038  120.0608 C   0  0  0  0  0  0  0  0  0  0  0  0
  134.1631  130.1250  120.4182 C   0  0  0  0  0  0  0  0  0  0  0  0
  133.1250  131.0631  120.1740 C   0  0  0  0  0  0  0  0  0  0  0  0
  132.9048  132.3021  120.5320 C   0  0  0  0  0  0  0  0  0  0  0  0
  131.9195  130.8133  119.2785 C   0  0  0  0  0  0  0  0  0  0  0  0
  131.6336  132.9750  120.1385 C   0  0  0  0  0  0  0  0  0  0  0  0
  130.6576  131.2108  119.5652 C   0  0  0  0  0  0  0  0  0  0  0  0
  131.2386  134.2396  120.2956 C   0  0  0  0  0  0  0  0  0  0  0  0
  129.4802  130.5897  119.2287 C   0  0  0  0  0  0  0  0  0  0  0  0
  129.4475  129.2479  119.0278 C   0  0  0  0  0  0  0  0  0  0  0  0
  128.4546  131.2060  119.6660 N   0  0  0  0  0  0  0  0  0  0  0  0
  127.2189  130.5811  119.2440 C   0  0  0  0  0  0  0  0  0  0  0  0
  127.4457  129.3551  118.5859 C   0  0  0  0  0  0  0  0  0  0  0  0
  126.3355  131.5646  119.5755 C   0  0  0  0  0  0  0  0  0  0  0  0
  136.3522  128.6838  120.8975 C   0  0  0  0  0  0  0  0  0  0  0  0
  136.2712  129.9783  121.4190 C   0  0  0  0  0  0  0  0  0  0  0  0
  135.0478  130.6180  121.2908 C   0  0  0  0  0  0  0  0  0  0  0  0
  126.1807  128.6649  118.2661 C   0  0  0  0  0  0  0  0  0  0  0  0
  128.6415  128.7246  118.3255 C   0  0  0  0  0  0  0  0  0  0  0  0
  1  2  1  0
  2  3  2  0
  3  4  1  0
  4  5  1  0
  4  6  2  3
  5  7  2  3
  6  8  1  0
  7  9  1  0
  8 10  1  0
 10 11  2  0
 10 12  1  0
 12 13  1  0
 13 14  1  0
 13 15  2  0
  1 16  2  0
 16 17  1  0
  3 18  1  0
 17 18  2  0
 14 19  1  0
 11 20  1  0
 14 20  2  0
M  END
$$$$

     RDKit          3D

 20 22  0  0  0  0  0  0  0  0999 V2000
  135.2115  128.1261  120.2523 C   0  0  0  0  0  0  0  0  0  0  0  0
  134.1888  129.0038  120.0608 C   0  0  0  0  0  0  0  0  0  0  0  0
  134.1631  130.1250  120.4182 C   0  0  0  0  0  0  0  0  0  0  0  0
  133.1250  131.0631  120.1740 C   0  0  0  0  0  0  0  0  0  0  0  0
  132.9048  132.3021  120.5320 C   0  0  0  0  0  0  0  0  0  0  0  0
  131.9195  130.8133  119.2785 C   0  0  0  0  0  0  0  0  0  0  0  0
  131.6336  132.9750  120.1385 C   0  0  0  0  0  0  0  0  0  0  0  0
  130.6576  131.2108  119.5652 C   0  0  0  0  0  0  0  0  0  0  0  0
  131.2386  134.2396  120.2956 C   0  0  0  0  0  0  0  0  0  0  0  0
  129.4802  130.5897  119.2287 C   0  0  0  0  0  0  0  0  0  0  0  0
  129.4475  129.2479  119.0278 C   0  0  0  0  0  0  0  0  0  0  0  0
  128.4546  131.2060  119.6660 N   0  0  0  0  0  0  0  0  0  0  0  0
  127.2189  130.5811  119.2440 C   0  0  0  0  0  0  0  0  0  0  0  0
  136.3447  128.6803  120.9111 C   0  0  0  0  0  0  0  0  0  0  0  0
  126.1472  131.0516  119.4937 N   0  0  0  0  0  0  0  0  0  0  0  0
  136.2613  129.9719  121.4366 C   0  0  0  0  0  0  0  0  0  0  0  0
  130.3171  132.2335  120.4152 C   0  0  0  0  0  0  0  0  0  0  0  0
  127.3739  129.4735  118.6235 N   0  0  0  0  0  0  0  0  0  0  0  0
  128.1510  128.7863  118.4851 C   0  0  0  0  0  0  0  0  0  0  0  0
  135.0383  130.6074  121.2810 N   0  0  0  0  0  0  0  0  0  0  0  0
  1  2  1  0
  2  3  2  0
  3  4  1  0
  4  5  1  0
  4  6  2  0
  5  7  2  0
  6  8  1  0
  7  9  1  0
  8 10  1  0
 10 11  2  0
 10 12  1  0
 12 13  2  0
  1 14  2  0
 13 15  1  0
 14 16  1  0
  7 17  1  0
  8 17  2  0
 13 18  1  0
 11 19  1  0
 18 19  2  0
  3 20  1  0
 16 20  2  0
M  END
$$$$

     RDKit          3D

 20 21  0  0  0  0  0  0  0  0999 V2000
  135.2115  128.1261  120.2523 C   0  0  0  0  0  0  0  0  0  0  0  0
  134.1888  129.0038  120.0608 C   0  0  0  0  0  0  0  0  0  0  0  0
  134.1631  130.1250  120.4182 C   0  0  0  0  0  0  0  0  0  0  0  0
  133.1250  131.0631  120.1740 C   0  0  0  0  0  0  0  0  0  0  0  0
  132.9048  132.3021  120.5320 C   0  0  0  0  0  0  0  0  0  0  0  0
  131.9195  130.8133  119.2785 C   0  0  0  0  0  0  0  0  0  0  0  0
  131.6336  132.9750  120.1385 C   0  0  0  0  0  0  0  0  0  0  0  0
  130.6576  131.2108  119.5652 C   0  0  0  0  0  0  0  0  0  0  0  0
  136.3904  128.7445  120.7327 C   0  0  0  0  0  0  0  0  0  0  0  0
  129.4235  130.5748  119.1457 C   0  0  0  0  0  0  0  0  0  0  0  0
  136.3212  130.0585  121.1738 C   0  0  0  0  0  0  0  0  0  0  0  0
  135.0981  130.7245  121.1367 C   0  0  0  0  0  0  0  0  0  0  0  0
  129.3132  129.2744  118.9402 C   0  0  0  0  0  0  0  0  0  0  0  0
  128.1917  131.3346  119.3606 C   0  0  0  0  0  0  0  0  0  0  0  0
  126.9810  130.6293  119.0180 C   0  0  0  0  0  0  0  0  0  0  0  0
  125.8505  131.1493  119.0001 O   0  0  0  0  0  0  0  0  0  0  0  0
  127.0435  129.4702  118.5939 C   0  0  0  0  0  0  0  0  0  0  0  0
  126.0771  128.5970  118.2696 C   0  0  0  0  0  0  0  0  0  0  0  0
  131.2247  134.2654  120.3336 C   0  0  0  0  0  0  0  0  0  0  0  0
  128.2541  128.7692  118.6936 C   0  0  0  0  0  0  0  0  0  0  0  0
  1  2  1  0
  2  3  2  0
  3  4  1  0
  4  5  1  0
  4  6  2  3
  5  7  2  3
  6  8  1  0
  1  9  2  0
  8 10  1  0
  9 11  1  0
  3 12  1  0
 11 12  2  0
 10 13  2  0
 10 14  1  0
 14 15  2  0
 15 16  1  0
 15 17  1  0
 17 18  1  0
  7 19  1  0
 13 20  1  0
 17 20  2  0
M  END
$$$$

     RDKit          3D

 20 22  0  0  0  0  0  0  0  0999 V2000
  131.9586  130.8656  121.2311 C   0  0  0  0  0  0  0  0  0  0  0  0
  131.0557  130.5577  120.1828 C   0  0  0  0  0  0  0  0  0  0  0  0
  129.9777  130.2649  120.1073 C   0  0  0  0  0  0  0  0  0  0  0  0
  133.2666  130.8760  121.1185 C   0  0  0  0  0  0  0  0  0  0  0  0
  131.3239  131.1128  122.4339 C   0  0  0  0  0  0  0  0  0  0  0  0
  131.8619  131.6526  123.5203 C   0  0  0  0  0  0  0  0  0  0  0  0
  131.1275  131.8806  124.6731 C   0  0  0  0  0  0  0  0  0  0  0  0
  129.8697  131.1842  124.5952 C   0  0  0  0  0  0  0  0  0  0  0  0
  130.0110  130.5974  122.2901 C   0  0  0  0  0  0  0  0  0  0  0  0
  129.1798  130.7296  123.3695 C   0  0  0  0  0  0  0  0  0  0  0  0
  129.0717  129.8452  119.0434 C   0  0  0  0  0  0  0  0  0  0  0  0
  133.9196  131.1886  120.2343 N   0  0  0  0  0  0  0  0  0  0  0  0
  134.9838  130.7560  119.7504 C   0  0  0  0  0  0  0  0  0  0  0  0
  135.4583  130.9711  118.5585 C   0  0  0  0  0  0  0  0  0  0  0  0
  135.3971  129.6817  120.5942 C   0  0  0  0  0  0  0  0  0  0  0  0
  136.1625  128.8086  120.3353 C   0  0  0  0  0  0  0  0  0  0  0  0
  136.4876  128.7620  118.9859 C   0  0  0  0  0  0  0  0  0  0  0  0
  135.7719  129.5636  118.1851 C   0  0  0  0  0  0  0  0  0  0  0  0
  129.3553  130.2658  121.2429 C   0  0  0  0  0  0  0  0  0  0  0  0
  131.5833  132.2250  125.8310 O   0  0  0  0  0  0  0  0  0  0  0  0
  1  2  1  0
  2  3  2  0
  1  4  1  0
  1  5  2  0
  5  6  1  0
  6  7  2  0
  7  8  1  0
  5  9  1  0
  8 10  2  0
  9 10  1  0
  3 11  1  0
  4 12  2  3
 12 13  1  0
 13 14  1  0
 13 15  2  0
 15 16  1  0
 16 17  2  0
 14 18  2  0
 17 18  1  0
  3 19  1  0
  9 19  2  0
  7 20  1  0
M  END
$$$$

     RDKit          3D

 20 22  0  0  0  0  0  0  0  0999 V2000
  131.9586  130.8656  121.2311 C   0  0  0  0  0  0  0  0  0  0  0  0
  131.0557  130.5577  120.1828 C   0  0  0  0  0  0  0  0  0  0  0  0
  129.9777  130.2649  120.1073 C   0  0  0  0  0  0  0  0  0  0  0  0
  133.2666  130.8760  121.1185 C   0  0  0  0  0  0  0  0  0  0  0  0
  131.3239  131.1128  122.4339 C   0  0  0  0  0  0  0  0  0  0  0  0
  131.8619  131.6526  123.5203 C   0  0  0  0  0  0  0  0  0  0  0  0
  131.1275  131.8806  124.6731 C   0  0  0  0  0  0  0  0  0  0  0  0
  129.8697  131.1842  124.5952 C   0  0  0  0  0  0  0  0  0  0  0  0
  130.0110  130.5974  122.2901 C   0  0  0  0  0  0  0  0  0  0  0  0
  129.1798  130.7296  123.3695 C   0  0  0  0  0  0  0  0  0  0  0  0
  129.0717  129.8452  119.0434 C   0  0  0  0  0  0  0  0  0  0  0  0
  133.9196  131.1886  120.2343 N   0  0  0  0  0  0  0  0  0  0  0  0
  134.9838  130.7560  119.7504 C   0  0  0  0  0  0  0  0  0  0  0  0
  135.4583  130.9711  118.5585 C   0  0  0  0  0  0  0  0  0  0  0  0
  135.3971  129.6817  120.5942 C   0  0  0  0  0  0  0  0  0  0  0  0
  136.1625  128.8086  120.3353 C   0  0  0  0  0  0  0  0  0  0  0  0
  129.3642  130.2585  121.2370 N   0  0  0  0  0  0  0  0  0  0  0  0
  136.5404  128.7885  118.9983 C   0  0  0  0  0  0  0  0  0  0  0  0
  135.8631  129.6168  118.1890 C   0  0  0  0  0  0  0  0  0  0  0  0
  131.6590  132.4037  125.9707 C   0  0  0  0  0  0  0  0  0  0  0  0
  1  2  1  0
  2  3  2  0
  1  4  1  0
  1  5  2  0
  5  6  1  0
  6  7  2  0
  7  8  1  0
  5  9  1  0
  8 10  2  0
  9 10  1  0
  3 11  1  0
  4 12  2  3
 12 13  1  0
 13 14  1  0
 13 15  2  0
 15 16  1  0
  3 17  1  0
  9 17  2  0
 16 18  2  0
 14 19  2  0
 18 19  1  0
  7 20  1  0
M  END
$$$$

     RDKit          3D

 20 22  0  0  0  0  0  0  0  0999 V2000
  131.9586  130.8656  121.2311 C   0  0  0  0  0  0  0  0  0  0  0  0
  131.0557  130.5577  120.1828 C   0  0  0  0  0  0  0  0  0  0  0  0
  129.9777  130.2649  120.1073 C   0  0  0  0  0  0  0  0  0  0  0  0
  133.2666  130.8760  121.1185 C   0  0  0  0  0  0  0  0  0  0  0  0
  131.3239  131.1128  122.4339 C   0  0  0  0  0  0  0  0  0  0  0  0
  131.8619  131.6526  123.5203 C   0  0  0  0  0  0  0  0  0  0  0  0
  131.1275  131.8806  124.6731 C   0  0  0  0  0  0  0  0  0  0  0  0
  129.8697  131.1842  124.5952 C   0  0  0  0  0  0  0  0  0  0  0  0
  130.0110  130.5974  122.2901 C   0  0  0  0  0  0  0  0  0  0  0  0
  129.1798  130.7296  123.3695 C   0  0  0  0  0  0  0  0  0  0  0  0
  129.0717  129.8452  119.0434 C   0  0  0  0  0  0  0  0  0  0  0  0
  133.9196  131.1886  120.2343 N   0  0  0  0  0  0  0  0  0  0  0  0
  134.9838  130.7560  119.7504 C   0  0  0  0  0  0  0  0  0  0  0  0
  135.4583  130.9711  118.5585 C   0  0  0  0  0  0  0  0  0  0  0  0
  135.3971  129.6817  120.5942 C   0  0  0  0  0  0  0  0  0  0  0  0
  136.1625  128.8086  120.3353 C   0  0  0  0  0  0  0  0  0  0  0  0
  136.4876  128.7620  118.9859 C   0  0  0  0  0  0  0  0  0  0  0  0
  135.7719  129.5636  118.1851 C   0  0  0  0  0  0  0  0  0  0  0  0
  129.3553  130.2658  121.2429 C   0  0  0  0  0  0  0  0  0  0  0  0
  131.7823  132.2962  125.9276 C   0  0  0  0  0  0  0  0  0  0  0  0
  1  2  1  0
  2  3  2  0
  1  4  1  0
  1  5  2  0
  5  6  1  0
  6  7  2  0
  7  8  1  0
  5  9  1  0
  8 10  2  0
  9 10  1  0
  3 11  1  0
  4 12  2  3
 12 13  1  0
 13 14  1  0
 13 15  2  0
 15 16  1  0
 16 17  2  0
 14 18  2  0
 17 18  1  0
  3 19  1  0
  9 19  2  0
  7 20  1  0
M  END
$$$$

     RDKit          3D

 20 20  0  0  0  0  0  0  0  0999 V2000
  135.2115  128.1261  120.2523 C   0  0  0  0  0  0  0  0  0  0  0  0
  134.1888  129.0038  120.0608 C   0  0  0  0  0  0  0  0  0  0  0  0
  134.1631  130.1250  120.4182 C   0  0  0  0  0  0  0  0  0  0  0  0
  133.1250  131.0631  120.1740 C   0  0  0  0  0  0  0  0  0  0  0  0
  132.9048  132.3021  120.5320 C   0  0  0  0  0  0  0  0  0  0  0  0
  132.1461  130.4425  119.3148 C   0  0  0  0  0  0  0  0  0  0  0  0
  130.8598  130.8429  119.1722 C   0  0  0  0  0  0  0  0  0  0  0  0
  129.7328  130.0381  118.7979 C   0  0  0  0  0  0  0  0  0  0  0  0
  128.4723  130.2913  119.4385 C   0  0  0  0  0  0  0  0  0  0  0  0
  127.4224  129.5075  119.2325 C   0  0  0  0  0  0  0  0  0  0  0  0
  131.8432  132.7926  120.2575 C   0  0  0  0  0  0  0  0  0  0  0  0
  128.2242  131.2491  120.0852 C   0  0  0  0  0  0  0  0  0  0  0  0
  131.3167  134.1265  120.3705 C   0  0  0  0  0  0  0  0  0  0  0  0
  126.9321  131.9304  120.1208 C   0  0  0  0  0  0  0  0  0  0  0  0
  127.5543  128.2368  118.7344 C   0  0  0  0  0  0  0  0  0  0  0  0
  130.3981  134.6448  119.7025 C   0  0  0  0  0  0  0  0  0  0  0  0
  126.1080  131.3329  119.1099 C   0  0  0  0  0  0  0  0  0  0  0  0
  126.5656  130.1323  118.4520 C   0  0  0  0  0  0  0  0  0  0  0  0
  128.3370  127.7445  117.6791 C   0  0  0  0  0  0  0  0  0  0  0  0
  125.0982  131.9440  118.6604 O   0  0  0  0  0  0  0  0  0  0  0  0
  1  2  1  0
  2  3  2  3
  3  4  1  0
  4  5  1  0
  4  6  2  3
  6  7  1  0
  7  8  2  3
  8  9  1  0
  9 10  2  0
  5 11  2  3
  9 12  1  0
 11 13  1  0
 12 14  2  0
 10 15  1  0
 13 16  1  0
 14 17  1  0
 10 18  1  0
 17 18  2  0
 15 19  1  0
 17 20  1  0
M  END
$$$$

     RDKit          3D

 20 22  0  0  0  0  0  0  0  0999 V2000
  131.9586  130.8656  121.2311 C   0  0  0  0  0  0  0  0  0  0  0  0
  131.0557  130.5577  120.1828 C   0  0  0  0  0  0  0  0  0  0  0  0
  129.9777  130.2649  120.1073 C   0  0  0  0  0  0  0  0  0  0  0  0
  133.2666  130.8760  121.1185 C   0  0  0  0  0  0  0  0  0  0  0  0
  131.3239  131.1128  122.4339 C   0  0  0  0  0  0  0  0  0  0  0  0
  131.8619  131.6526  123.5203 C   0  0  0  0  0  0  0  0  0  0  0  0
  131.1275  131.8806  124.6731 C   0  0  0  0  0  0  0  0  0  0  0  0
  129.2023  130.4888  121.3068 C   0  0  0  0  0  0  0  0  0  0  0  0
  129.8746  131.1732  124.6528 C   0  0  0  0  0  0  0  0  0  0  0  0
  127.8689  130.2131  121.4134 C   0  0  0  0  0  0  0  0  0  0  0  0
  129.9926  130.6142  122.2645 C   0  0  0  0  0  0  0  0  0  0  0  0
  129.4789  130.5828  123.4109 C   0  0  0  0  0  0  0  0  0  0  0  0
  133.9020  130.7716  120.2422 N   0  0  0  0  0  0  0  0  0  0  0  0
  135.1123  130.4764  120.0293 C   0  0  0  0  0  0  0  0  0  0  0  0
  135.6995  129.7799  121.2072 C   0  0  0  0  0  0  0  0  0  0  0  0
  136.6471  128.8459  120.9663 C   0  0  0  0  0  0  0  0  0  0  0  0
  136.4991  128.4308  119.6088 C   0  0  0  0  0  0  0  0  0  0  0  0
  131.5993  132.4469  126.0024 C   0  0  0  0  0  0  0  0  0  0  0  0
  135.5417  130.5156  118.7383 C   0  0  0  0  0  0  0  0  0  0  0  0
  135.5465  129.0083  118.8279 C   0  0  0  0  0  0  0  0  0  0  0  0
  1  2  1  0
  2  3  2  0
  1  4  1  0
  1  5  2  0
  5  6  1  0
  6  7  2  0
  3  8  1  0
  7  9  1  0
  8 10  1  0
  5 11  1  0
  8 11  2  0
  9 12  2  0
 11 12  1  0
  4 13  2  3
 13 14  1  0
 14 15  2  0
 15 16  1  0
 16 17  2  0
  7 18  1  0
 14 19  1  0
 17 20  1  0
 19 20  2  0
M  END
$$$$

     RDKit          3D

 20 22  0  0  0  0  0  0  0  0999 V2000
  131.9586  130.8656  121.2311 C   0  0  0  0  0  0  0  0  0  0  0  0
  131.0557  130.5577  120.1828 C   0  0  0  0  0  0  0  0  0  0  0  0
  129.9777  130.2649  120.1073 C   0  0  0  0  0  0  0  0  0  0  0  0
  133.2666  130.8760  121.1185 C   0  0  0  0  0  0  0  0  0  0  0  0
  131.3239  131.1128  122.4339 C   0  0  0  0  0  0  0  0  0  0  0  0
  131.8619  131.6526  123.5203 C   0  0  0  0  0  0  0  0  0  0  0  0
  131.1275  131.8806  124.6731 C   0  0  0  0  0  0  0  0  0  0  0  0
  129.8697  131.1842  124.5952 C   0  0  0  0  0  0  0  0  0  0  0  0
  130.0110  130.5974  122.2901 C   0  0  0  0  0  0  0  0  0  0  0  0
  129.1798  130.7296  123.3695 C   0  0  0  0  0  0  0  0  0  0  0  0
  129.0717  129.8452  119.0434 C   0  0  0  0  0  0  0  0  0  0  0  0
  133.9196  131.1886  120.2343 N   0  0  0  0  0  0  0  0  0  0  0  0
  134.9838  130.7560  119.7504 C   0  0  0  0  0  0  0  0  0  0  0  0
  135.4583  130.9711  118.5585 C   0  0  0  0  0  0  0  0  0  0  0  0
  135.3971  129.6817  120.5942 C   0  0  0  0  0  0  0  0  0  0  0  0
  136.1625  128.8086  120.3353 C   0  0  0  0  0  0  0  0  0  0  0  0
  136.4876  128.7620  118.9859 C   0  0  0  0  0  0  0  0  0  0  0  0
  135.7719  129.5636  118.1851 C   0  0  0  0  0  0  0  0  0  0  0  0
  129.3553  130.2658  121.2429 N   0  0  0  0  0  0  0  0  0  0  0  0
  131.5911  132.2298  125.8253 O   0  0  0  0  0  0  0  0  0  0  0  0
  1  2  1  0
  2  3  2  0
  1  4  1  0
  1  5  2  0
  5  6  1  0
  6  7  2  0
  7  8  1  0
  5  9  1  0
  8 10  2  0
  9 10  1  0
  3 11  1  0
  4 12  2  3
 12 13  1  0
 13 14  1  0
 13 15  2  0
 15 16  1  0
 16 17  2  0
 14 18  2  0
 17 18  1  0
  3 19  1  0
  9 19  2  0
  7 20  1  0
M  END
$$$$

     RDKit          3D

 21 23  0  0  0  0  0  0  0  0999 V2000
  131.9586  130.8656  121.2311 C   0  0  0  0  0  0  0  0  0  0  0  0
  131.0557  130.5577  120.1828 C   0  0  0  0  0  0  0  0  0  0  0  0
  129.9777  130.2649  120.1073 C   0  0  0  0  0  0  0  0  0  0  0  0
  133.2666  130.8760  121.1185 C   0  0  0  0  0  0  0  0  0  0  0  0
  131.3239  131.1128  122.4339 C   0  0  0  0  0  0  0  0  0  0  0  0
  131.8619  131.6526  123.5203 C   0  0  0  0  0  0  0  0  0  0  0  0
  131.1275  131.8806  124.6731 C   0  0  0  0  0  0  0  0  0  0  0  0
  129.8697  131.1842  124.5952 C   0  0  0  0  0  0  0  0  0  0  0  0
  130.0110  130.5974  122.2901 C   0  0  0  0  0  0  0  0  0  0  0  0
  129.1798  130.7296  123.3695 C   0  0  0  0  0  0  0  0  0  0  0  0
  129.0717  129.8452  119.0434 C   0  0  0  0  0  0  0  0  0  0  0  0
  133.9196  131.1886  120.2343 N   0  0  0  0  0  0  0  0  0  0  0  0
  134.9838  130.7560  119.7504 C   0  0  0  0  0  0  0  0  0  0  0  0
  135.4583  130.9711  118.5585 C   0  0  0  0  0  0  0  0  0  0  0  0
  129.3400  130.2554  121.2440 C   0  0  0  0  0  0  0  0  0  0  0  0
  136.3461  130.5205  117.8371 C   0  0  0  0  0  0  0  0  0  0  0  0
  131.7755  132.2856  125.9407 C   0  0  0  0  0  0  0  0  0  0  0  0
  136.7417  129.1969  118.1171 C   0  0  0  0  0  0  0  0  0  0  0  0
  136.0621  128.4856  119.0990 C   0  0  0  0  0  0  0  0  0  0  0  0
  135.1651  129.0829  119.9935 C   0  0  0  0  0  0  0  0  0  0  0  0
  134.5518  128.6065  121.1800 C   0  0  0  0  0  0  0  0  0  0  0  0
  1  2  1  0
  2  3  2  0
  1  4  1  0
  1  5  2  0
  5  6  1  0
  6  7  2  0
  7  8  1  0
  5  9  1  0
  8 10  2  0
  9 10  1  0
  3 11  1  0
  4 12  2  3
 12 13  1  0
 13 14  2  0
  3 15  1  0
  9 15  2  0
 14 16  1  0
  7 17  1  0
 16 18  2  0
 18 19  1  0
 13 20  1  0
 19 20  2  0
 20 21  1  0
M  END
$$$$

     RDKit          3D

 21 23  0  0  0  0  0  0  0  0999 V2000
  131.9586  130.8656  121.2311 C   0  0  0  0  0  0  0  0  0  0  0  0
  131.0557  130.5577  120.1828 C   0  0  0  0  0  0  0  0  0  0  0  0
  129.9777  130.2649  120.1073 C   0  0  0  0  0  0  0  0  0  0  0  0
  133.2666  130.8760  121.1185 C   0  0  0  0  0  0  0  0  0  0  0  0
  131.3239  131.1128  122.4339 C   0  0  0  0  0  0  0  0  0  0  0  0
  131.8619  131.6526  123.5203 C   0  0  0  0  0  0  0  0  0  0  0  0
  131.1275  131.8806  124.6731 C   0  0  0  0  0  0  0  0  0  0  0  0
  129.8697  131.1842  124.5952 C   0  0  0  0  0  0  0  0  0  0  0  0
  129.9645  130.6433  122.3963 C   0  0  0  0  0  0  0  0  0  0  0  0
  129.2378  130.6517  123.5891 C   0  0  0  0  0  0  0  0  0  0  0  0
  129.0696  129.8456  119.0525 C   0  0  0  0  0  0  0  0  0  0  0  0
  133.6751  130.2848  120.1519 C   0  0  0  0  0  0  0  0  0  0  0  0
  134.8757  130.0480  119.7501 C   0  0  0  0  0  0  0  0  0  0  0  0
  135.9481  130.4326  120.3757 C   0  0  0  0  0  0  0  0  0  0  0  0
  129.2646  130.2940  121.2002 C   0  0  0  0  0  0  0  0  0  0  0  0
  131.7006  132.4437  125.9432 C   0  0  0  0  0  0  0  0  0  0  0  0
  134.8965  129.2685  118.5475 C   0  0  0  0  0  0  0  0  0  0  0  0
  136.1305  129.1287  117.9754 C   0  0  0  0  0  0  0  0  0  0  0  0
  137.1743  129.8366  118.4400 C   0  0  0  0  0  0  0  0  0  0  0  0
  138.3904  129.8226  118.0144 O   0  0  0  0  0  0  0  0  0  0  0  0
  137.0522  130.4774  119.7568 N   0  0  0  0  0  0  0  0  0  0  0  0
  1  2  1  0
  2  3  2  0
  1  4  1  0
  1  5  2  0
  5  6  1  0
  6  7  2  0
  7  8  1  0
  5  9  1  0
  8 10  2  0
  9 10  1  0
  3 11  1  0
  4 12  2  3
 12 13  1  0
 13 14  2  0
  3 15  1  0
  9 15  2  0
  7 16  1  0
 13 17  1  0
 17 18  2  0
 18 19  1  0
 19 20  2  0
 14 21  1  0
 19 21  1  0
M  END
$$$$

     RDKit          3D

 21 23  0  0  0  0  0  0  0  0999 V2000
  131.9586  130.8656  121.2311 C   0  0  0  0  0  0  0  0  0  0  0  0
  131.0557  130.5577  120.1828 C   0  0  0  0  0  0  0  0  0  0  0  0
  129.9777  130.2649  120.1073 C   0  0  0  0  0  0  0  0  0  0  0  0
  133.2666  130.8760  121.1185 C   0  0  0  0  0  0  0  0  0  0  0  0
  131.1775  130.9903  122.1493 C   0  0  0  0  0  0  0  0  0  0  0  0
  131.4791  131.4135  123.3753 C   0  0  0  0  0  0  0  0  0  0  0  0
  132.8547  131.6923  123.7452 C   0  0  0  0  0  0  0  0  0  0  0  0
  130.4337  131.5551  124.2443 C   0  0  0  0  0  0  0  0  0  0  0  0
  130.3679  131.7871  125.3869 O   0  0  0  0  0  0  0  0  0  0  0  0
  129.2490  131.2395  123.5864 N   0  0  0  0  0  0  0  0  0  0  0  0
  129.3450  131.0630  122.2159 C   0  0  0  0  0  0  0  0  0  0  0  0
  133.8239  130.3928  120.2902 C   0  0  0  0  0  0  0  0  0  0  0  0
  135.1406  130.2050  120.0537 C   0  0  0  0  0  0  0  0  0  0  0  0
  136.0731  130.1983  121.0028 C   0  0  0  0  0  0  0  0  0  0  0  0
  135.4709  129.6245  118.8324 C   0  0  0  0  0  0  0  0  0  0  0  0
  136.7208  129.3072  118.5643 C   0  0  0  0  0  0  0  0  0  0  0  0
  137.6289  129.4601  119.6463 C   0  0  0  0  0  0  0  0  0  0  0  0
  129.1697  130.3879  121.2941 N   0  0  0  0  0  0  0  0  0  0  0  0
  129.2292  129.6654  118.8997 C   0  0  0  0  0  0  0  0  0  0  0  0
  138.7350  128.8767  119.6991 O   0  0  0  0  0  0  0  0  0  0  0  0
  137.3371  130.1572  120.7679 C   0  0  0  0  0  0  0  0  0  0  0  0
  1  2  1  0
  2  3  2  0
  1  4  1  0
  1  5  2  0
  5  6  1  0
  6  7  2  0
  6  8  1  0
  8  9  2  0
  8 10  1  0
  5 11  1  0
 10 11  2  0
  4 12  2  3
 12 13  1  0
 13 14  2  0
 13 15  1  0
 15 16  2  0
 16 17  1  0
  3 18  1  0
 11 18  1  0
  3 19  1  0
 17 20  1  0
 14 21  1  0
 17 21  2  0
M  END
$$$$

     RDKit          3D

 21 23  0  0  0  0  0  0  0  0999 V2000
  135.2115  128.1261  120.2523 C   0  0  0  0  0  0  0  0  0  0  0  0
  134.1888  129.0038  120.0608 C   0  0  0  0  0  0  0  0  0  0  0  0
  134.1631  130.1250  120.4182 C   0  0  0  0  0  0  0  0  0  0  0  0
  133.1250  131.0631  120.1740 C   0  0  0  0  0  0  0  0  0  0  0  0
  132.9048  132.3021  120.5320 C   0  0  0  0  0  0  0  0  0  0  0  0
  131.9195  130.8133  119.2785 C   0  0  0  0  0  0  0  0  0  0  0  0
  131.6336  132.9750  120.1385 C   0  0  0  0  0  0  0  0  0  0  0  0
  130.6576  131.2108  119.5652 C   0  0  0  0  0  0  0  0  0  0  0  0
  131.2386  134.2396  120.2956 C   0  0  0  0  0  0  0  0  0  0  0  0
  129.4802  130.5897  119.2287 C   0  0  0  0  0  0  0  0  0  0  0  0
  129.4475  129.2479  119.0278 C   0  0  0  0  0  0  0  0  0  0  0  0
  128.4546  131.2060  119.6660 N   0  0  0  0  0  0  0  0  0  0  0  0
  127.2189  130.5811  119.2440 C   0  0  0  0  0  0  0  0  0  0  0  0
  136.3447  128.6803  120.9111 C   0  0  0  0  0  0  0  0  0  0  0  0
  136.2604  129.9737  121.4347 C   0  0  0  0  0  0  0  0  0  0  0  0
  126.1471  131.0526  119.4901 N   0  0  0  0  0  0  0  0  0  0  0  0
  128.0878  128.7438  118.7948 C   0  0  0  0  0  0  0  0  0  0  0  0
  127.3783  129.4996  118.5248 N   0  0  0  0  0  0  0  0  0  0  0  0
  130.3843  132.1553  120.5290 C   0  0  0  0  0  0  0  0  0  0  0  0
  135.0370  130.6081  121.2799 N   0  0  0  0  0  0  0  0  0  0  0  0
  127.8494  127.4166  118.5743 N   0  0  0  0  0  0  0  0  0  0  0  0
  1  2  1  0
  2  3  2  0
  3  4  1  0
  4  5  1  0
  4  6  2  0
  5  7  2  0
  6  8  1  0
  7  9  1  0
  8 10  1  0
 10 11  2  0
 10 12  1  0
 12 13  2  0
  1 14  2  0
 14 15  1  0
 13 16  1  0
 11 17  1  0
 13 18  1  0
 17 18  2  0
  7 19  1  0
  8 19  2  0
  3 20  1  0
 15 20  2  0
 17 21  1  0
M  END
$$$$

     RDKit          3D

 21 23  0  0  0  0  0  0  0  0999 V2000
  131.9586  130.8656  121.2311 C   0  0  0  0  0  0  0  0  0  0  0  0
  131.0557  130.5577  120.1828 C   0  0  0  0  0  0  0  0  0  0  0  0
  129.9777  130.2649  120.1073 C   0  0  0  0  0  0  0  0  0  0  0  0
  133.2666  130.8760  121.1185 C   0  0  0  0  0  0  0  0  0  0  0  0
  131.1775  130.9903  122.1493 C   0  0  0  0  0  0  0  0  0  0  0  0
  131.4791  131.4135  123.3753 C   0  0  0  0  0  0  0  0  0  0  0  0
  132.8547  131.6923  123.7452 C   0  0  0  0  0  0  0  0  0  0  0  0
  130.4337  131.5551  124.2443 C   0  0  0  0  0  0  0  0  0  0  0  0
  130.3679  131.7871  125.3869 O   0  0  0  0  0  0  0  0  0  0  0  0
  129.2490  131.2395  123.5864 N   0  0  0  0  0  0  0  0  0  0  0  0
  129.3450  131.0630  122.2159 C   0  0  0  0  0  0  0  0  0  0  0  0
  133.8239  130.3928  120.2902 C   0  0  0  0  0  0  0  0  0  0  0  0
  135.1406  130.2050  120.0537 C   0  0  0  0  0  0  0  0  0  0  0  0
  136.0731  130.1983  121.0028 C   0  0  0  0  0  0  0  0  0  0  0  0
  135.4709  129.6245  118.8324 C   0  0  0  0  0  0  0  0  0  0  0  0
  136.7208  129.3072  118.5643 C   0  0  0  0  0  0  0  0  0  0  0  0
  137.6289  129.4601  119.6463 C   0  0  0  0  0  0  0  0  0  0  0  0
  129.0903  129.7950  119.0265 C   0  0  0  0  0  0  0  0  0  0  0  0
  128.5764  130.7705  121.1993 C   0  0  0  0  0  0  0  0  0  0  0  0
  138.7349  128.8763  119.6974 O   0  0  0  0  0  0  0  0  0  0  0  0
  137.4201  130.2574  120.7871 N   0  0  0  0  0  0  0  0  0  0  0  0
  1  2  1  0
  2  3  2  0
  1  4  1  0
  1  5  2  0
  5  6  1  0
  6  7  2  0
  6  8  1  0
  8  9  2  0
  8 10  1  0
  5 11  1  0
 10 11  2  0
  4 12  2  3
 12 13  1  0
 13 14  2  0
 13 15  1  0
 15 16  2  0
 16 17  1  0
  3 18  1  0
  3 19  1  0
 11 19  1  0
 17 20  2  0
 14 21  1  0
 17 21  1  0
M  END
$$$$

     RDKit          3D

 21 23  0  0  0  0  0  0  0  0999 V2000
  131.9586  130.8656  121.2311 C   0  0  0  0  0  0  0  0  0  0  0  0
  131.0557  130.5577  120.1828 C   0  0  0  0  0  0  0  0  0  0  0  0
  129.9777  130.2649  120.1073 C   0  0  0  0  0  0  0  0  0  0  0  0
  129.1008  130.2644  121.2247 C   0  0  0  0  0  0  0  0  0  0  0  0
  133.2751  130.9244  121.1560 C   0  0  0  0  0  0  0  0  0  0  0  0
  131.3037  131.0130  122.2078 C   0  0  0  0  0  0  0  0  0  0  0  0
  131.6699  131.5255  123.3718 C   0  0  0  0  0  0  0  0  0  0  0  0
  133.0164  132.0487  123.5474 C   0  0  0  0  0  0  0  0  0  0  0  0
  129.6072  130.7013  122.4558 C   0  0  0  0  0  0  0  0  0  0  0  0
  133.7328  130.6976  119.9055 C   0  0  0  0  0  0  0  0  0  0  0  0
  130.9787  131.7277  124.4390 C   0  0  0  0  0  0  0  0  0  0  0  0
  134.9768  130.5577  119.5350 C   0  0  0  0  0  0  0  0  0  0  0  0
  135.9195  130.1511  120.2176 C   0  0  0  0  0  0  0  0  0  0  0  0
  137.0064  129.5208  119.7946 C   0  0  0  0  0  0  0  0  0  0  0  0
  129.9095  131.1333  124.6223 N   0  0  0  0  0  0  0  0  0  0  0  0
  131.4333  132.3336  125.3893 N   0  0  0  0  0  0  0  0  0  0  0  0
  136.7819  128.8406  118.5891 C   0  0  0  0  0  0  0  0  0  0  0  0
  137.5425  128.0126  118.0965 C   0  0  0  0  0  0  0  0  0  0  0  0
  135.6415  129.0867  117.9417 C   0  0  0  0  0  0  0  0  0  0  0  0
  129.3959  130.6248  123.5210 C   0  0  0  0  0  0  0  0  0  0  0  0
  134.7285  130.0908  118.0759 C   0  0  0  0  0  0  0  0  0  0  0  0
  1  2  1  0
  2  3  2  0
  3  4  1  0
  1  5  1  0
  1  6  2  0
  6  7  1  0
  7  8  2  0
  4  9  2  0
  6  9  1  0
  5 10  2  3
  7 11  1  0
 10 12  1  0
 12 13  2  0
 13 14  1  0
 11 15  2  0
 11 16  1  0
 14 17  2  0
 17 18  1  0
 17 19  1  0
  9 20  1  0
 15 20  1  0
 12 21  1  0
 19 21  2  0
M  END
$$$$

     RDKit          3D

 21 23  0  0  0  0  0  0  0  0999 V2000
  131.9586  130.8656  121.2311 C   0  0  0  0  0  0  0  0  0  0  0  0
  131.0557  130.5577  120.1828 C   0  0  0  0  0  0  0  0  0  0  0  0
  129.9777  130.2649  120.1073 C   0  0  0  0  0  0  0  0  0  0  0  0
  133.2666  130.8760  121.1185 C   0  0  0  0  0  0  0  0  0  0  0  0
  131.3239  131.1128  122.4339 C   0  0  0  0  0  0  0  0  0  0  0  0
  131.8619  131.6526  123.5203 C   0  0  0  0  0  0  0  0  0  0  0  0
  131.1275  131.8806  124.6731 C   0  0  0  0  0  0  0  0  0  0  0  0
  129.8697  131.1842  124.5952 C   0  0  0  0  0  0  0  0  0  0  0  0
  130.0110  130.5974  122.2901 C   0  0  0  0  0  0  0  0  0  0  0  0
  129.1798  130.7296  123.3695 C   0  0  0  0  0  0  0  0  0  0  0  0
  129.0717  129.8452  119.0434 C   0  0  0  0  0  0  0  0  0  0  0  0
  133.9196  131.1886  120.2343 N   0  0  0  0  0  0  0  0  0  0  0  0
  134.9838  130.7560  119.7504 C   0  0  0  0  0  0  0  0  0  0  0  0
  135.4583  130.9711  118.5585 C   0  0  0  0  0  0  0  0  0  0  0  0
  136.3413  130.5389  117.8482 C   0  0  0  0  0  0  0  0  0  0  0  0
  129.3459  130.2608  121.2402 N   0  0  0  0  0  0  0  0  0  0  0  0
  136.7956  129.2451  118.1587 C   0  0  0  0  0  0  0  0  0  0  0  0
  137.4317  128.4685  117.3530 O   0  0  0  0  0  0  0  0  0  0  0  0
  136.4764  128.5348  119.2980 C   0  0  0  0  0  0  0  0  0  0  0  0
  135.7123  129.2258  120.2820 C   0  0  0  0  0  0  0  0  0  0  0  0
  131.6526  132.4039  125.9733 C   0  0  0  0  0  0  0  0  0  0  0  0
  1  2  1  0
  2  3  2  0
  1  4  1  0
  1  5  2  0
  5  6  1  0
  6  7  2  0
  7  8  1  0
  5  9  1  0
  8 10  2  0
  9 10  1  0
  3 11  1  0
  4 12  2  3
 12 13  1  0
 13 14  2  0
 14 15  1  0
  3 16  1  0
  9 16  2  0
 15 17  2  0
 17 18  1  0
 17 19  1  0
 13 20  1  0
 19 20  2  0
  7 21  1  0
M  END
$$$$

     RDKit          3D

 21 23  0  0  0  0  0  0  0  0999 V2000
  131.9586  130.8656  121.2311 C   0  0  0  0  0  0  0  0  0  0  0  0
  131.0557  130.5577  120.1828 C   0  0  0  0  0  0  0  0  0  0  0  0
  129.9777  130.2649  120.1073 C   0  0  0  0  0  0  0  0  0  0  0  0
  133.2666  130.8760  121.1185 C   0  0  0  0  0  0  0  0  0  0  0  0
  131.3239  131.1128  122.4339 C   0  0  0  0  0  0  0  0  0  0  0  0
  131.8619  131.6526  123.5203 C   0  0  0  0  0  0  0  0  0  0  0  0
  131.1275  131.8806  124.6731 C   0  0  0  0  0  0  0  0  0  0  0  0
  129.8697  131.1842  124.5952 C   0  0  0  0  0  0  0  0  0  0  0  0
  130.0110  130.5974  122.2901 C   0  0  0  0  0  0  0  0  0  0  0  0
  129.1798  130.7296  123.3695 C   0  0  0  0  0  0  0  0  0  0  0  0
  129.0717  129.8452  119.0434 C   0  0  0  0  0  0  0  0  0  0  0  0
  133.9196  131.1886  120.2343 N   0  0  0  0  0  0  0  0  0  0  0  0
  134.9838  130.7560  119.7504 C   0  0  0  0  0  0  0  0  0  0  0  0
  135.4583  130.9711  118.5585 C   0  0  0  0  0  0  0  0  0  0  0  0
  135.3971  129.6817  120.5942 C   0  0  0  0  0  0  0  0  0  0  0  0
  129.3636  130.2597  121.2380 N   0  0  0  0  0  0  0  0  0  0  0  0
  136.3205  130.1353  117.8875 C   0  0  0  0  0  0  0  0  0  0  0  0
  131.8185  132.2919  125.9025 C   0  0  0  0  0  0  0  0  0  0  0  0
  136.4676  128.9146  118.5129 C   0  0  0  0  0  0  0  0  0  0  0  0
  136.7571  127.7803  117.9262 C   0  0  0  0  0  0  0  0  0  0  0  0
  136.0976  128.7946  119.8614 C   0  0  0  0  0  0  0  0  0  0  0  0
  1  2  1  0
  2  3  2  0
  1  4  1  0
  1  5  2  0
  5  6  1  0
  6  7  2  0
  7  8  1  0
  5  9  1  0
  8 10  2  0
  9 10  1  0
  3 11  1  0
  4 12  2  3
 12 13  1  0
 13 14  1  0
 13 15  2  0
  3 16  1  0
  9 16  2  0
 14 17  2  0
  7 18  1  0
 17 19  1  0
 19 20  1  0
 15 21  1  0
 19 21  2  0
M  END
$$$$

     RDKit          3D

 21 23  0  0  0  0  0  0  0  0999 V2000
  131.9586  130.8656  121.2311 C   0  0  0  0  0  0  0  0  0  0  0  0
  131.0557  130.5577  120.1828 C   0  0  0  0  0  0  0  0  0  0  0  0
  129.9777  130.2649  120.1073 C   0  0  0  0  0  0  0  0  0  0  0  0
  133.2666  130.8760  121.1185 C   0  0  0  0  0  0  0  0  0  0  0  0
  131.3239  131.1128  122.4339 C   0  0  0  0  0  0  0  0  0  0  0  0
  131.8619  131.6526  123.5203 C   0  0  0  0  0  0  0  0  0  0  0  0
  131.1275  131.8806  124.6731 C   0  0  0  0  0  0  0  0  0  0  0  0
  129.8697  131.1842  124.5952 C   0  0  0  0  0  0  0  0  0  0  0  0
  130.0110  130.5974  122.2901 C   0  0  0  0  0  0  0  0  0  0  0  0
  129.1798  130.7296  123.3695 C   0  0  0  0  0  0  0  0  0  0  0  0
  129.0717  129.8452  119.0434 C   0  0  0  0  0  0  0  0  0  0  0  0
  133.9196  131.1886  120.2343 N   0  0  0  0  0  0  0  0  0  0  0  0
  134.9838  130.7560  119.7504 C   0  0  0  0  0  0  0  0  0  0  0  0
  135.4583  130.9711  118.5585 C   0  0  0  0  0  0  0  0  0  0  0  0
  136.3413  130.5389  117.8482 C   0  0  0  0  0  0  0  0  0  0  0  0
  129.3459  130.2608  121.2402 N   0  0  0  0  0  0  0  0  0  0  0  0
  136.7956  129.2451  118.1587 C   0  0  0  0  0  0  0  0  0  0  0  0
  131.6632  132.4065  125.9700 C   0  0  0  0  0  0  0  0  0  0  0  0
  136.1444  128.5367  119.1611 C   0  0  0  0  0  0  0  0  0  0  0  0
  135.2291  129.1083  120.0471 C   0  0  0  0  0  0  0  0  0  0  0  0
  134.6600  128.6451  121.2678 N   0  0  0  0  0  0  0  0  0  0  0  0
  1  2  1  0
  2  3  2  0
  1  4  1  0
  1  5  2  0
  5  6  1  0
  6  7  2  0
  7  8  1  0
  5  9  1  0
  8 10  2  0
  9 10  1  0
  3 11  1  0
  4 12  2  3
 12 13  1  0
 13 14  2  0
 14 15  1  0
  3 16  1  0
  9 16  2  0
 15 17  2  0
  7 18  1  0
 17 19  1  0
 13 20  1  0
 19 20  2  0
 20 21  1  0
M  END
$$$$

     RDKit          3D

 21 22  0  0  0  0  0  0  0  0999 V2000
  131.9586  130.8656  121.2311 C   0  0  0  0  0  0  0  0  0  0  0  0
  131.0557  130.5577  120.1828 C   0  0  0  0  0  0  0  0  0  0  0  0
  129.9777  130.2649  120.1073 C   0  0  0  0  0  0  0  0  0  0  0  0
  133.2666  130.8760  121.1185 C   0  0  0  0  0  0  0  0  0  0  0  0
  131.1775  130.9903  122.1493 C   0  0  0  0  0  0  0  0  0  0  0  0
  131.4791  131.4135  123.3753 C   0  0  0  0  0  0  0  0  0  0  0  0
  132.8547  131.6923  123.7452 C   0  0  0  0  0  0  0  0  0  0  0  0
  130.4337  131.5551  124.2443 C   0  0  0  0  0  0  0  0  0  0  0  0
  130.3679  131.7871  125.3869 O   0  0  0  0  0  0  0  0  0  0  0  0
  129.2490  131.2395  123.5864 N   0  0  0  0  0  0  0  0  0  0  0  0
  129.3450  131.0630  122.2159 C   0  0  0  0  0  0  0  0  0  0  0  0
  133.8239  130.3928  120.2902 C   0  0  0  0  0  0  0  0  0  0  0  0
  135.1406  130.2050  120.0537 C   0  0  0  0  0  0  0  0  0  0  0  0
  136.0731  130.1983  121.0028 C   0  0  0  0  0  0  0  0  0  0  0  0
  135.4694  129.6398  118.8705 C   0  0  0  0  0  0  0  0  0  0  0  0
  129.0852  129.8061  119.0259 C   0  0  0  0  0  0  0  0  0  0  0  0
  128.3948  130.7831  121.2699 C   0  0  0  0  0  0  0  0  0  0  0  0
  127.8425  129.3866  119.3708 C   0  0  0  0  0  0  0  0  0  0  0  0
  134.5227  129.4672  117.8419 N   0  0  0  0  0  0  0  0  0  0  0  0
  128.0813  129.3844  120.9612 C   0  0  0  0  0  0  0  0  0  0  0  0
  134.7767  128.7990  116.7378 C   0  0  0  0  0  0  0  0  0  0  0  0
  1  2  1  0
  2  3  2  0
  1  4  1  0
  1  5  2  0
  5  6  1  0
  6  7  2  0
  6  8  1  0
  8  9  2  0
  8 10  1  0
  5 11  1  0
 10 11  2  0
  4 12  2  3
 12 13  1  0
 13 14  2  0
 13 15  1  0
  3 16  1  0
 11 17  1  0
 16 18  2  0
 15 19  2  3
 17 20  2  0
 18 20  1  0
 19 21  1  0
M  END
$$$$

     RDKit          3D

 22 22  0  0  0  0  0  0  0  0999 V2000
  135.2115  128.1261  120.2523 C   0  0  0  0  0  0  0  0  0  0  0  0
  134.1888  129.0038  120.0608 C   0  0  0  0  0  0  0  0  0  0  0  0
  134.1631  130.1250  120.4182 C   0  0  0  0  0  0  0  0  0  0  0  0
  133.1250  131.0631  120.1740 C   0  0  0  0  0  0  0  0  0  0  0  0
  132.9048  132.3021  120.5320 C   0  0  0  0  0  0  0  0  0  0  0  0
  131.9195  130.8133  119.2785 C   0  0  0  0  0  0  0  0  0  0  0  0
  131.6336  132.9750  120.1385 C   0  0  0  0  0  0  0  0  0  0  0  0
  130.6576  131.2108  119.5652 C   0  0  0  0  0  0  0  0  0  0  0  0
  131.2386  134.2396  120.2956 C   0  0  0  0  0  0  0  0  0  0  0  0
  129.4802  130.5897  119.2287 C   0  0  0  0  0  0  0  0  0  0  0  0
  129.4475  129.2479  119.0278 C   0  0  0  0  0  0  0  0  0  0  0  0
  128.4546  131.2060  119.6660 N   0  0  0  0  0  0  0  0  0  0  0  0
  127.2189  130.5811  119.2440 C   0  0  0  0  0  0  0  0  0  0  0  0
  127.4457  129.3551  118.5859 C   0  0  0  0  0  0  0  0  0  0  0  0
  126.3355  131.5646  119.5755 C   0  0  0  0  0  0  0  0  0  0  0  0
  136.3522  128.6838  120.8975 C   0  0  0  0  0  0  0  0  0  0  0  0
  136.2712  129.9783  121.4190 C   0  0  0  0  0  0  0  0  0  0  0  0
  125.0060  131.2484  119.0537 C   0  0  0  0  0  0  0  0  0  0  0  0
  123.9987  132.1668  119.0385 C   0  0  0  0  0  0  0  0  0  0  0  0
  126.2406  128.6608  118.2256 C   0  0  0  0  0  0  0  0  0  0  0  0
  135.0487  130.6192  121.2880 C   0  0  0  0  0  0  0  0  0  0  0  0
  126.2200  127.2533  118.0247 C   0  0  0  0  0  0  0  0  0  0  0  0
  1  2  1  0
  2  3  2  0
  3  4  1  0
  4  5  1  0
  4  6  2  3
  5  7  2  3
  6  8  1  0
  7  9  1  0
  8 10  1  0
 10 11  2  0
 10 12  1  0
 12 13  1  0
 13 14  1  0
 13 15  2  3
  1 16  2  0
 16 17  1  0
 15 18  1  0
 18 19  1  0
 14 20  1  0
  3 21  1  0
 17 21  2  0
 20 22  1  0
M  END
$$$$

     RDKit          3D

 22 23  0  0  0  0  0  0  0  0999 V2000
  131.9586  130.8656  121.2311 C   0  0  0  0  0  0  0  0  0  0  0  0
  131.0557  130.5577  120.1828 C   0  0  0  0  0  0  0  0  0  0  0  0
  129.9777  130.2649  120.1073 C   0  0  0  0  0  0  0  0  0  0  0  0
  133.2666  130.8760  121.1185 C   0  0  0  0  0  0  0  0  0  0  0  0
  131.1775  130.9903  122.1493 C   0  0  0  0  0  0  0  0  0  0  0  0
  131.4791  131.4135  123.3753 C   0  0  0  0  0  0  0  0  0  0  0  0
  132.8547  131.6923  123.7452 C   0  0  0  0  0  0  0  0  0  0  0  0
  130.4337  131.5551  124.2443 C   0  0  0  0  0  0  0  0  0  0  0  0
  130.3679  131.7871  125.3869 O   0  0  0  0  0  0  0  0  0  0  0  0
  129.2490  131.2395  123.5864 N   0  0  0  0  0  0  0  0  0  0  0  0
  129.3450  131.0630  122.2159 C   0  0  0  0  0  0  0  0  0  0  0  0
  133.8239  130.3928  120.2902 C   0  0  0  0  0  0  0  0  0  0  0  0
  135.1406  130.2050  120.0537 C   0  0  0  0  0  0  0  0  0  0  0  0
  136.0731  130.1983  121.0028 C   0  0  0  0  0  0  0  0  0  0  0  0
  129.0732  129.8546  119.0123 C   0  0  0  0  0  0  0  0  0  0  0  0
  127.8114  129.4453  119.3213 C   0  0  0  0  0  0  0  0  0  0  0  0
  126.7112  129.8553  118.5025 C   0  0  0  0  0  0  0  0  0  0  0  0
  135.4473  129.6391  118.8647 C   0  0  0  0  0  0  0  0  0  0  0  0
  136.6864  129.3301  118.5569 C   0  0  0  0  0  0  0  0  0  0  0  0
  137.6490  129.5632  119.5840 C   0  0  0  0  0  0  0  0  0  0  0  0
  125.5275  129.3448  118.4370 C   0  0  0  0  0  0  0  0  0  0  0  0
  137.2533  130.0457  120.8749 C   0  0  0  0  0  0  0  0  0  0  0  0
  1  2  1  0
  2  3  2  3
  1  4  1  0
  1  5  2  3
  5  6  1  0
  6  7  2  0
  6  8  1  0
  8  9  2  0
  8 10  1  0
  5 11  1  0
 10 11  2  0
  4 12  2  3
 12 13  1  0
 13 14  2  0
  3 15  1  0
 15 16  1  0
 16 17  2  3
 13 18  1  0
 18 19  2  0
 19 20  1  0
 17 21  1  0
 14 22  1  0
 20 22  2  0
M  END
$$$$

     RDKit          3D

 22 22  0  0  0  0  0  0  0  0999 V2000
  135.2115  128.1261  120.2523 C   0  0  0  0  0  0  0  0  0  0  0  0
  134.1888  129.0038  120.0608 C   0  0  0  0  0  0  0  0  0  0  0  0
  134.1631  130.1250  120.4182 C   0  0  0  0  0  0  0  0  0  0  0  0
  133.1250  131.0631  120.1740 C   0  0  0  0  0  0  0  0  0  0  0  0
  132.9048  132.3021  120.5320 C   0  0  0  0  0  0  0  0  0  0  0  0
  131.9195  130.8133  119.2785 C   0  0  0  0  0  0  0  0  0  0  0  0
  131.6336  132.9750  120.1385 C   0  0  0  0  0  0  0  0  0  0  0  0
  130.6576  131.2108  119.5652 C   0  0  0  0  0  0  0  0  0  0  0  0
  131.2386  134.2396  120.2956 C   0  0  0  0  0  0  0  0  0  0  0  0
  129.4802  130.5897  119.2287 C   0  0  0  0  0  0  0  0  0  0  0  0
  129.4475  129.2479  119.0278 C   0  0  0  0  0  0  0  0  0  0  0  0
  128.4546  131.2060  119.6660 N   0  0  0  0  0  0  0  0  0  0  0  0
  127.2189  130.5811  119.2440 C   0  0  0  0  0  0  0  0  0  0  0  0
  127.4457  129.3551  118.5859 C   0  0  0  0  0  0  0  0  0  0  0  0
  126.3355  131.5646  119.5755 C   0  0  0  0  0  0  0  0  0  0  0  0
  136.3522  128.6838  120.8975 C   0  0  0  0  0  0  0  0  0  0  0  0
  136.2712  129.9783  121.4190 C   0  0  0  0  0  0  0  0  0  0  0  0
  125.0060  131.2484  119.0537 C   0  0  0  0  0  0  0  0  0  0  0  0
  123.9987  132.1668  119.0385 C   0  0  0  0  0  0  0  0  0  0  0  0
  126.2406  128.6608  118.2256 C   0  0  0  0  0  0  0  0  0  0  0  0
  135.0487  130.6192  121.2880 C   0  0  0  0  0  0  0  0  0  0  0  0
  126.2200  127.2533  118.0247 C   0  0  0  0  0  0  0  0  0  0  0  0
  1  2  1  0
  2  3  2  0
  3  4  1  0
  4  5  1  0
  4  6  2  3
  5  7  2  3
  6  8  1  0
  7  9  1  0
  8 10  1  0
 10 11  2  0
 10 12  1  0
 12 13  1  0
 13 14  1  0
 13 15  2  3
  1 16  2  0
 16 17  1  0
 15 18  1  0
 18 19  1  0
 14 20  1  0
  3 21  1  0
 17 21  2  0
 20 22  2  0
M  END
$$$$
