
     RDKit          3D

 10 10  0  0  0  0  0  0  0  0999 V2000
  129.5153  130.5545  124.3869 N   0  0  0  0  0  0  0  0  0  0  0  0
  130.4535  130.7442  123.7434 C   0  0  0  0  0  0  0  0  0  0  0  0
  131.5963  131.3592  124.2755 C   0  0  0  0  0  0  0  0  0  0  0  0
  130.4611  130.4440  122.5042 N   0  0  0  0  0  0  0  0  0  0  0  0
  131.4530  130.7693  121.7012 C   0  0  0  0  0  0  0  0  0  0  0  0
  132.6199  131.3668  122.2489 C   0  0  0  0  0  0  0  0  0  0  0  0
  131.2700  130.2260  120.2671 C   0  0  0  0  0  0  0  0  0  0  0  0
  130.2673  129.5009  119.9367 C   0  0  0  0  0  0  0  0  0  0  0  0
  132.5781  131.7446  123.7023 N   0  0  0  0  0  0  0  0  0  0  0  0
  129.7559  129.6034  118.9618 C   0  0  0  0  0  0  0  0  0  0  0  0
  1  2  1  0
  2  3  2  0
  2  4  1  0
  4  5  2  0
  5  6  1  0
  5  7  1  0
  7  8  1  0
  3  9  1  0
  6  9  2  0
  8 10  2  0
M  END
$$$$

     RDKit          3D

 10  9  0  0  0  0  0  0  0  0999 V2000
  130.6045  131.5919  125.8124 O   0  0  0  0  0  0  0  0  0  0  0  0
  130.9488  131.8629  124.9288 C   0  0  0  0  0  0  0  0  0  0  0  0
  131.3443  131.1796  123.7559 C   0  0  0  0  0  0  0  0  0  0  0  0
  130.4464  130.6988  122.9867 C   0  0  0  0  0  0  0  0  0  0  0  0
  129.0363  130.7462  123.3491 C   0  0  0  0  0  0  0  0  0  0  0  0
  130.8665  130.3765  121.6748 C   0  0  0  0  0  0  0  0  0  0  0  0
  130.0189  129.7433  120.5953 C   0  0  0  0  0  0  0  0  0  0  0  0
  131.4558  133.1377  124.5077 N   0  0  0  0  0  0  0  0  0  0  0  0
  130.6632  129.3787  119.2085 C   0  0  0  0  0  0  0  0  0  0  0  0
  130.1208  129.8549  118.0568 C   0  0  0  0  0  0  0  0  0  0  0  0
  1  2  2  0
  2  3  1  0
  3  4  2  3
  4  5  1  0
  4  6  1  0
  6  7  1  0
  2  8  1  0
  7  9  1  0
  9 10  1  0
M  END
$$$$

     RDKit          3D

 10 10  0  0  0  0  0  0  0  0999 V2000
  134.7829  128.6847  116.1951 C   0  0  0  0  0  0  0  0  0  0  0  0
  134.7959  128.9138  117.4326 N   0  0  0  0  0  0  0  0  0  0  0  0
  133.8119  129.1719  118.2654 C   0  0  0  0  0  0  0  0  0  0  0  0
  136.0912  129.0031  118.0466 C   0  0  0  0  0  0  0  0  0  0  0  0
  136.0134  129.1640  119.3968 O   0  0  0  0  0  0  0  0  0  0  0  0
  133.9349  129.0700  119.6558 N   0  0  0  0  0  0  0  0  0  0  0  0
  135.1673  128.6190  120.3489 C   0  0  0  0  0  0  0  0  0  0  0  0
  135.5132  129.4733  115.4735 O   0  0  0  0  0  0  0  0  0  0  0  0
  135.2781  128.5723  121.6545 O   0  0  0  0  0  0  0  0  0  0  0  0
  132.6170  129.6866  118.0000 O   0  0  0  0  0  0  0  0  0  0  0  0
  1  2  1  0
  2  3  1  0
  2  4  1  0
  4  5  1  0
  3  6  1  0
  5  7  1  0
  6  7  1  0
  1  8  2  0
  7  9  2  0
  3 10  2  0
M  END
$$$$

     RDKit          3D

 11 11  0  0  0  0  0  0  0  0999 V2000
  129.1801  132.0520  122.1734 C   0  0  0  0  0  0  0  0  0  0  0  0
  128.2475  131.1524  121.7515 C   0  0  0  0  0  0  0  0  0  0  0  0
  128.8194  130.1370  120.9717 C   0  0  0  0  0  0  0  0  0  0  0  0
  128.0466  128.9192  120.5696 C   0  0  0  0  0  0  0  0  0  0  0  0
  130.4802  132.1349  121.8257 C   0  0  0  0  0  0  0  0  0  0  0  0
  130.0628  130.3542  120.4211 C   0  0  0  0  0  0  0  0  0  0  0  0
  130.9284  131.3206  120.8432 C   0  0  0  0  0  0  0  0  0  0  0  0
  131.2078  133.2136  122.3483 C   0  0  0  0  0  0  0  0  0  0  0  0
  130.6911  134.2341  123.1010 C   0  0  0  0  0  0  0  0  0  0  0  0
  132.6460  133.1572  122.1317 C   0  0  0  0  0  0  0  0  0  0  0  0
  133.5253  134.1626  122.5174 C   0  0  0  0  0  0  0  0  0  0  0  0
  1  2  1  0
  2  3  2  0
  3  4  1  0
  1  5  2  0
  3  6  1  0
  5  7  1  0
  6  7  2  0
  5  8  1  0
  8  9  2  0
  8 10  1  0
 10 11  2  0
M  END
$$$$

     RDKit          3D

 11 11  0  0  0  0  0  0  0  0999 V2000
  130.5628  131.2975  125.7872 O   0  0  0  0  0  0  0  0  0  0  0  0
  130.7835  131.3438  124.7469 C   0  0  0  0  0  0  0  0  0  0  0  0
  130.5527  132.4630  123.9947 C   0  0  0  0  0  0  0  0  0  0  0  0
  131.3909  130.1432  124.2471 C   0  0  0  0  0  0  0  0  0  0  0  0
  130.7648  132.4648  122.5851 C   0  0  0  0  0  0  0  0  0  0  0  0
  131.0859  131.3386  121.9746 C   0  0  0  0  0  0  0  0  0  0  0  0
  131.2535  130.1472  122.6684 C   0  0  0  0  0  0  0  0  0  0  0  0
  131.1142  131.2873  120.6764 O   0  0  0  0  0  0  0  0  0  0  0  0
  131.2269  130.1113  119.9439 C   0  0  0  0  0  0  0  0  0  0  0  0
  131.6084  130.1390  118.5434 C   0  0  0  0  0  0  0  0  0  0  0  0
  132.3671  129.0793  117.9474 O   0  0  0  0  0  0  0  0  0  0  0  0
  1  2  1  0
  2  3  2  0
  2  4  1  0
  3  5  1  0
  5  6  2  0
  4  7  2  0
  6  7  1  0
  6  8  1  0
  8  9  1  0
  9 10  1  0
 10 11  1  0
M  END
$$$$

     RDKit          3D

 11 10  0  0  0  0  0  0  0  0999 V2000
  129.3755  130.7530  124.3132 N   0  0  0  0  0  0  0  0  0  0  0  0
  130.5287  130.7603  123.7240 C   0  0  0  0  0  0  0  0  0  0  0  0
  130.6613  130.7501  122.3977 N   0  0  0  0  0  0  0  0  0  0  0  0
  129.4534  130.5633  121.7096 C   0  0  0  0  0  0  0  0  0  0  0  0
  131.8077  131.0173  124.5145 C   0  0  0  0  0  0  0  0  0  0  0  0
  129.3763  130.5759  120.2682 C   0  0  0  0  0  0  0  0  0  0  0  0
  130.5839  130.2638  119.6106 C   0  0  0  0  0  0  0  0  0  0  0  0
  128.2194  130.7869  119.6928 C   0  0  0  0  0  0  0  0  0  0  0  0
  130.6213  129.8723  118.2247 C   0  0  0  0  0  0  0  0  0  0  0  0
  127.0831  131.3002  120.2845 C   0  0  0  0  0  0  0  0  0  0  0  0
  133.0202  130.9910  123.9409 N   0  0  0  0  0  0  0  0  0  0  0  0
  1  2  1  0
  2  3  2  3
  3  4  1  0
  2  5  1  0
  4  6  1  0
  6  7  1  0
  6  8  2  3
  7  9  2  0
  8 10  1  0
  5 11  1  0
M  END
$$$$

     RDKit          3D

 11 11  0  0  0  0  0  0  0  0999 V2000
  129.8891  131.5013  124.5631 C   0  0  0  0  0  0  0  0  0  0  0  0
  130.2945  130.3953  124.3243 C   0  0  0  0  0  0  0  0  0  0  0  0
  130.2520  132.6033  123.6381 C   0  0  0  0  0  0  0  0  0  0  0  0
  131.0844  130.0240  123.2164 N   0  0  0  0  0  0  0  0  0  0  0  0
  131.4899  131.0350  122.4767 C   0  0  0  0  0  0  0  0  0  0  0  0
  132.2327  130.8730  121.3097 N   0  0  0  0  0  0  0  0  0  0  0  0
  132.6333  129.7661  120.7883 C   0  0  0  0  0  0  0  0  0  0  0  0
  132.9670  129.6819  119.3815 C   0  0  0  0  0  0  0  0  0  0  0  0
  131.3303  132.4541  122.5101 C   0  0  0  0  0  0  0  0  0  0  0  0
  132.4357  130.6848  118.6454 O   0  0  0  0  0  0  0  0  0  0  0  0
  133.5776  128.5976  118.8081 O   0  0  0  0  0  0  0  0  0  0  0  0
  1  2  2  0
  1  3  1  0
  2  4  1  0
  4  5  2  0
  5  6  1  0
  6  7  1  0
  7  8  1  0
  3  9  2  0
  5  9  1  0
  8 10  1  0
  8 11  2  0
M  END
$$$$

     RDKit          3D

 11 12  0  0  0  0  0  0  0  0999 V2000
  129.1801  132.0520  122.1734 C   0  0  0  0  0  0  0  0  0  0  0  0
  130.4177  132.3221  122.3303 C   0  0  0  0  0  0  0  0  0  0  0  0
  130.9008  133.2359  123.3383 C   0  0  0  0  0  0  0  0  0  0  0  0
  131.4291  131.8378  121.4974 C   0  0  0  0  0  0  0  0  0  0  0  0
  132.3638  133.2938  123.4674 C   0  0  0  0  0  0  0  0  0  0  0  0
  128.6940  130.9912  121.2237 C   0  0  0  0  0  0  0  0  0  0  0  0
  132.7085  131.8551  121.8774 C   0  0  0  0  0  0  0  0  0  0  0  0
  131.0558  131.2718  120.2731 C   0  0  0  0  0  0  0  0  0  0  0  0
  129.6710  130.3885  120.5089 C   0  0  0  0  0  0  0  0  0  0  0  0
  129.6452  129.5002  119.7094 O   0  0  0  0  0  0  0  0  0  0  0  0
  133.2446  132.5952  122.7114 N   0  0  0  0  0  0  0  0  0  0  0  0
  1  2  2  0
  2  3  1  0
  2  4  1  0
  3  5  2  0
  1  6  1  0
  4  7  2  0
  4  8  1  0
  6  9  2  0
  8  9  1  0
  9 10  1  0
  5 11  1  0
  7 11  1  0
M  END
$$$$

     RDKit          3D

 12 13  0  0  0  0  0  0  0  0999 V2000
  129.1801  132.0520  122.1734 C   0  0  0  0  0  0  0  0  0  0  0  0
  130.4177  132.3221  122.3303 N   0  0  0  0  0  0  0  0  0  0  0  0
  130.8394  133.2253  123.3569 C   0  0  0  0  0  0  0  0  0  0  0  0
  128.8682  131.0047  121.2436 C   0  0  0  0  0  0  0  0  0  0  0  0
  129.7209  130.9612  120.1517 C   0  0  0  0  0  0  0  0  0  0  0  0
  132.2740  133.3642  123.6015 N   0  0  0  0  0  0  0  0  0  0  0  0
  131.4078  131.7936  121.5806 C   0  0  0  0  0  0  0  0  0  0  0  0
  130.9753  131.4155  120.3201 N   0  0  0  0  0  0  0  0  0  0  0  0
  132.6316  131.7229  122.1005 C   0  0  0  0  0  0  0  0  0  0  0  0
  127.7398  130.2724  121.4503 C   0  0  0  0  0  0  0  0  0  0  0  0
  132.9302  132.1934  123.5083 C   0  0  0  0  0  0  0  0  0  0  0  0
  129.5877  130.2588  118.8779 N   0  0  0  0  0  0  0  0  0  0  0  0
  1  2  1  0
  2  3  1  0
  1  4  1  0
  4  5  1  0
  3  6  1  0
  2  7  1  0
  5  8  2  0
  7  8  1  0
  7  9  2  0
  4 10  2  0
  6 11  2  0
  9 11  1  0
  5 12  1  0
M  END
$$$$

     RDKit          3D

 12 12  0  0  0  0  0  0  0  0999 V2000
  126.2997  134.2062  119.0405 C   0  0  0  0  0  0  0  0  0  0  0  0
  125.3613  134.4553  119.6670 C   0  0  0  0  0  0  0  0  0  0  0  0
  124.7301  133.5280  120.4089 N   0  0  0  0  0  0  0  0  0  0  0  0
  125.2262  132.3213  120.4751 C   0  0  0  0  0  0  0  0  0  0  0  0
  126.2415  131.9571  119.7036 C   0  0  0  0  0  0  0  0  0  0  0  0
  127.0183  132.9350  118.9179 C   0  0  0  0  0  0  0  0  0  0  0  0
  126.8341  130.6751  119.4434 O   0  0  0  0  0  0  0  0  0  0  0  0
  128.0055  130.1481  118.9768 C   0  0  0  0  0  0  0  0  0  0  0  0
  128.9298  129.6727  119.8131 C   0  0  0  0  0  0  0  0  0  0  0  0
  128.5149  129.3236  121.0016 O   0  0  0  0  0  0  0  0  0  0  0  0
  124.6487  135.5818  119.4008 N   0  0  0  0  0  0  0  0  0  0  0  0
  130.0805  129.3408  119.6632 O   0  0  0  0  0  0  0  0  0  0  0  0
  1  2  1  0
  2  3  2  0
  3  4  1  0
  4  5  2  0
  1  6  2  0
  5  6  1  0
  5  7  1  0
  7  8  1  0
  8  9  1  0
  9 10  1  0
  2 11  1  0
  9 12  2  0
M  END
$$$$

     RDKit          3D

 12 11  0  0  0  0  0  0  0  0999 V2000
  129.3755  130.7530  124.3132 N   0  0  0  0  0  0  0  0  0  0  0  0
  130.5287  130.7603  123.7240 C   0  0  0  0  0  0  0  0  0  0  0  0
  130.6613  130.7501  122.3977 N   0  0  0  0  0  0  0  0  0  0  0  0
  129.4534  130.5633  121.7096 C   0  0  0  0  0  0  0  0  0  0  0  0
  131.8077  131.0173  124.5145 C   0  0  0  0  0  0  0  0  0  0  0  0
  129.3763  130.5759  120.2682 C   0  0  0  0  0  0  0  0  0  0  0  0
  130.5839  130.2638  119.6106 C   0  0  0  0  0  0  0  0  0  0  0  0
  128.2194  130.7869  119.6928 C   0  0  0  0  0  0  0  0  0  0  0  0
  130.6213  129.8723  118.2247 C   0  0  0  0  0  0  0  0  0  0  0  0
  131.7091  131.3789  125.7901 O   0  0  0  0  0  0  0  0  0  0  0  0
  132.6673  130.9382  123.7865 O   0  0  0  0  0  0  0  0  0  0  0  0
  127.0917  131.3342  120.3080 C   0  0  0  0  0  0  0  0  0  0  0  0
  1  2  1  0
  2  3  2  3
  3  4  1  0
  2  5  1  0
  4  6  1  0
  6  7  1  0
  6  8  2  3
  7  9  2  0
  5 10  1  0
  5 11  2  0
  8 12  1  0
M  END
$$$$

     RDKit          3D

 12 13  0  0  0  0  0  0  0  0999 V2000
  129.1801  132.0520  122.1734 C   0  0  0  0  0  0  0  0  0  0  0  0
  130.4177  132.3221  122.3303 N   0  0  0  0  0  0  0  0  0  0  0  0
  130.8394  133.2253  123.3569 C   0  0  0  0  0  0  0  0  0  0  0  0
  128.8682  131.0047  121.2436 C   0  0  0  0  0  0  0  0  0  0  0  0
  129.7209  130.9612  120.1517 C   0  0  0  0  0  0  0  0  0  0  0  0
  132.2740  133.3642  123.6015 N   0  0  0  0  0  0  0  0  0  0  0  0
  131.4078  131.7936  121.5806 C   0  0  0  0  0  0  0  0  0  0  0  0
  130.9753  131.4155  120.3201 N   0  0  0  0  0  0  0  0  0  0  0  0
  132.6316  131.7229  122.1005 C   0  0  0  0  0  0  0  0  0  0  0  0
  129.5647  130.0236  118.8786 C   0  0  0  0  0  0  0  0  0  0  0  0
  130.0297  133.7294  123.9914 O   0  0  0  0  0  0  0  0  0  0  0  0
  132.8918  132.0996  123.5130 C   0  0  0  0  0  0  0  0  0  0  0  0
  1  2  1  0
  2  3  1  0
  1  4  1  0
  4  5  1  0
  3  6  1  0
  2  7  1  0
  5  8  2  0
  7  8  1  0
  7  9  2  0
  5 10  1  0
  3 11  2  0
  6 12  2  0
  9 12  1  0
M  END
$$$$

     RDKit          3D

 13 14  0  0  0  0  0  0  0  0999 V2000
  125.4950  133.7984  118.2379 C   0  0  0  0  0  0  0  0  0  0  0  0
  125.7455  132.5625  118.2295 C   0  0  0  0  0  0  0  0  0  0  0  0
  124.9329  131.5565  117.7198 C   0  0  0  0  0  0  0  0  0  0  0  0
  126.7412  131.9743  118.8282 N   0  0  0  0  0  0  0  0  0  0  0  0
  125.2387  130.2412  117.8345 C   0  0  0  0  0  0  0  0  0  0  0  0
  126.1816  129.8097  118.8373 C   0  0  0  0  0  0  0  0  0  0  0  0
  126.2631  134.8524  118.8790 C   0  0  0  0  0  0  0  0  0  0  0  0
  127.4609  132.7229  119.7057 C   0  0  0  0  0  0  0  0  0  0  0  0
  127.1259  130.7018  119.2361 C   0  0  0  0  0  0  0  0  0  0  0  0
  125.5809  136.0882  119.0148 C   0  0  0  0  0  0  0  0  0  0  0  0
  127.1999  134.1230  119.9179 N   0  0  0  0  0  0  0  0  0  0  0  0
  128.3784  130.4205  119.5234 O   0  0  0  0  0  0  0  0  0  0  0  0
  126.1829  128.4519  119.2889 C   0  0  0  0  0  0  0  0  0  0  0  0
  1  2  2  0
  2  3  1  0
  2  4  1  0
  3  5  1  0
  5  6  2  0
  1  7  1  0
  4  8  1  0
  4  9  1  0
  6  9  1  0
  7 10  2  0
  7 11  1  0
  8 11  2  0
  9 12  2  0
  6 13  1  0
M  END
$$$$

     RDKit          3D

 14 15  0  0  0  0  0  0  0  0999 V2000
  135.1869  127.4155  119.4470 N   0  0  0  0  0  0  0  0  0  0  0  0
  134.7858  128.5587  118.9918 C   0  0  0  0  0  0  0  0  0  0  0  0
  133.7587  129.2906  119.5942 C   0  0  0  0  0  0  0  0  0  0  0  0
  135.3923  129.2016  117.9482 C   0  0  0  0  0  0  0  0  0  0  0  0
  132.9969  128.8459  120.7041 N   0  0  0  0  0  0  0  0  0  0  0  0
  133.3513  130.3707  119.3712 C   0  0  0  0  0  0  0  0  0  0  0  0
  136.3565  128.4982  117.1775 C   0  0  0  0  0  0  0  0  0  0  0  0
  135.1079  130.4858  117.5194 C   0  0  0  0  0  0  0  0  0  0  0  0
  133.8329  131.1177  118.1920 C   0  0  0  0  0  0  0  0  0  0  0  0
  132.2065  131.0267  120.0607 C   0  0  0  0  0  0  0  0  0  0  0  0
  136.4541  127.1376  117.2743 C   0  0  0  0  0  0  0  0  0  0  0  0
  132.1438  129.5638  121.1880 C   0  0  0  0  0  0  0  0  0  0  0  0
  137.1638  129.2123  116.4128 C   0  0  0  0  0  0  0  0  0  0  0  0
  131.2855  129.5408  122.1953 N   0  0  0  0  0  0  0  0  0  0  0  0
  1  2  1  0
  2  3  1  0
  2  4  2  0
  3  5  1  0
  3  6  2  0
  4  7  1  0
  4  8  1  0
  6  9  1  0
  8  9  2  0
  6 10  1  0
  7 11  1  0
  5 12  2  0
 10 12  1  0
  7 13  2  0
 12 14  1  0
M  END
$$$$

     RDKit          3D

 14 15  0  0  0  0  0  0  0  0999 V2000
  125.4950  133.7984  118.2379 C   0  0  0  0  0  0  0  0  0  0  0  0
  125.4514  134.7260  119.1254 C   0  0  0  0  0  0  0  0  0  0  0  0
  124.3676  135.6837  119.1680 N   0  0  0  0  0  0  0  0  0  0  0  0
  126.2386  134.7776  120.1699 C   0  0  0  0  0  0  0  0  0  0  0  0
  127.1834  133.7525  120.3085 N   0  0  0  0  0  0  0  0  0  0  0  0
  127.1863  132.7613  119.4491 C   0  0  0  0  0  0  0  0  0  0  0  0
  127.7206  131.4113  119.6759 C   0  0  0  0  0  0  0  0  0  0  0  0
  127.5502  130.4403  118.7180 C   0  0  0  0  0  0  0  0  0  0  0  0
  127.0923  130.7509  117.4164 C   0  0  0  0  0  0  0  0  0  0  0  0
  126.6763  132.1389  117.2621 C   0  0  0  0  0  0  0  0  0  0  0  0
  127.9046  128.9358  118.8270 C   0  0  0  0  0  0  0  0  0  0  0  0
  126.5186  132.9818  117.9970 C   0  0  0  0  0  0  0  0  0  0  0  0
  128.7653  128.4827  119.7822 N   0  0  0  0  0  0  0  0  0  0  0  0
  127.4108  127.9568  118.1062 N   0  0  0  0  0  0  0  0  0  0  0  0
  1  2  2  0
  2  3  1  0
  2  4  1  0
  4  5  2  0
  5  6  1  0
  6  7  1  0
  7  8  2  0
  8  9  1  0
  9 10  2  0
  8 11  1  0
  1 12  1  0
  6 12  2  0
 10 12  1  0
 11 13  1  0
 11 14  2  0
M  END
$$$$

     RDKit          3D

 15 15  0  0  0  0  0  0  0  0999 V2000
  131.4619  130.7802  124.4989 C   0  0  0  0  0  0  0  0  0  0  0  0
  131.9633  131.8998  124.3353 C   0  0  0  0  0  0  0  0  0  0  0  0
  131.4787  129.7497  123.5203 C   0  0  0  0  0  0  0  0  0  0  0  0
  132.4165  132.4324  123.0575 C   0  0  0  0  0  0  0  0  0  0  0  0
  132.1732  133.8741  122.7225 C   0  0  0  0  0  0  0  0  0  0  0  0
  131.9425  130.0177  122.2829 C   0  0  0  0  0  0  0  0  0  0  0  0
  131.3797  134.0465  121.5133 C   0  0  0  0  0  0  0  0  0  0  0  0
  131.8490  129.0076  121.1197 C   0  0  0  0  0  0  0  0  0  0  0  0
  131.5789  129.5630  120.1131 C   0  0  0  0  0  0  0  0  0  0  0  0
  131.2033  135.2329  120.7920 C   0  0  0  0  0  0  0  0  0  0  0  0
  130.9384  130.7641  119.9744 C   0  0  0  0  0  0  0  0  0  0  0  0
  130.7734  133.1284  120.9474 C   0  0  0  0  0  0  0  0  0  0  0  0
  130.8423  130.4660  125.8745 O   0  0  0  0  0  0  0  0  0  0  0  0
  130.3866  131.2427  118.7163 C   0  0  0  0  0  0  0  0  0  0  0  0
  130.9130  131.6589  120.8074 C   0  0  0  0  0  0  0  0  0  0  0  0
  1  2  2  0
  1  3  1  0
  2  4  1  0
  4  5  1  0
  3  6  2  0
  5  7  1  0
  6  8  1  0
  8  9  2  0
  7 10  2  0
  9 11  1  0
  7 12  1  0
  1 13  1  0
 11 14  2  0
 11 15  1  0
 12 15  2  0
M  END
$$$$

     RDKit          3D

 15 15  0  0  0  0  0  0  0  0999 V2000
  131.4619  130.7802  124.4989 C   0  0  0  0  0  0  0  0  0  0  0  0
  131.9633  131.8998  124.3353 C   0  0  0  0  0  0  0  0  0  0  0  0
  131.4787  129.7497  123.5203 C   0  0  0  0  0  0  0  0  0  0  0  0
  132.4165  132.4324  123.0575 C   0  0  0  0  0  0  0  0  0  0  0  0
  132.1732  133.8741  122.7225 C   0  0  0  0  0  0  0  0  0  0  0  0
  131.9425  130.0177  122.2829 C   0  0  0  0  0  0  0  0  0  0  0  0
  131.3797  134.0465  121.5133 C   0  0  0  0  0  0  0  0  0  0  0  0
  131.8490  129.0076  121.1197 C   0  0  0  0  0  0  0  0  0  0  0  0
  131.5789  129.5630  120.1131 C   0  0  0  0  0  0  0  0  0  0  0  0
  131.2033  135.2329  120.7920 C   0  0  0  0  0  0  0  0  0  0  0  0
  130.9384  130.7641  119.9744 C   0  0  0  0  0  0  0  0  0  0  0  0
  130.7734  133.1284  120.9474 C   0  0  0  0  0  0  0  0  0  0  0  0
  130.8423  130.4660  125.8745 O   0  0  0  0  0  0  0  0  0  0  0  0
  130.3866  131.2427  118.7163 C   0  0  0  0  0  0  0  0  0  0  0  0
  130.8692  131.6408  121.0637 C   0  0  0  0  0  0  0  0  0  0  0  0
  1  2  2  0
  1  3  1  0
  2  4  1  0
  4  5  1  0
  3  6  2  0
  5  7  1  0
  6  8  1  0
  8  9  2  0
  7 10  2  0
  9 11  1  0
  7 12  1  0
  1 13  1  0
 11 14  2  0
 11 15  1  0
 12 15  1  0
M  END
$$$$

     RDKit          3D

 15 16  0  0  0  0  0  0  0  0999 V2000
  135.1869  127.4155  119.4470 N   0  0  0  0  0  0  0  0  0  0  0  0
  134.7858  128.5587  118.9918 C   0  0  0  0  0  0  0  0  0  0  0  0
  133.7587  129.2906  119.5942 C   0  0  0  0  0  0  0  0  0  0  0  0
  135.3923  129.2016  117.9482 C   0  0  0  0  0  0  0  0  0  0  0  0
  133.3393  130.4865  119.0824 C   0  0  0  0  0  0  0  0  0  0  0  0
  134.9041  130.2797  117.2958 C   0  0  0  0  0  0  0  0  0  0  0  0
  133.9263  131.1416  117.8524 C   0  0  0  0  0  0  0  0  0  0  0  0
  136.5555  128.5400  117.3009 N   0  0  0  0  0  0  0  0  0  0  0  0
  132.2894  131.1504  119.7311 O   0  0  0  0  0  0  0  0  0  0  0  0
  131.6108  130.6346  120.7218 C   0  0  0  0  0  0  0  0  0  0  0  0
  137.1557  127.6129  117.9321 C   0  0  0  0  0  0  0  0  0  0  0  0
  130.2491  131.0555  120.9589 C   0  0  0  0  0  0  0  0  0  0  0  0
  129.2973  130.3356  121.7303 C   0  0  0  0  0  0  0  0  0  0  0  0
  128.1190  130.9503  122.1740 C   0  0  0  0  0  0  0  0  0  0  0  0
  136.4305  127.1775  118.9305 N   0  0  0  0  0  0  0  0  0  0  0  0
  1  2  1  0
  2  3  1  0
  2  4  2  0
  3  5  2  0
  4  6  1  0
  5  7  1  0
  6  7  2  0
  4  8  1  0
  5  9  1  0
  9 10  1  0
  8 11  2  0
 10 12  1  0
 12 13  1  0
 13 14  1  0
  1 15  2  0
 11 15  1  0
M  END
$$$$

     RDKit          3D

 16 17  0  0  0  0  0  0  0  0999 V2000
  129.3755  130.7530  124.3132 N   0  0  0  0  0  0  0  0  0  0  0  0
  130.5287  130.7603  123.7240 C   0  0  0  0  0  0  0  0  0  0  0  0
  131.6625  130.9864  124.4868 C   0  0  0  0  0  0  0  0  0  0  0  0
  130.6475  130.5623  122.3551 N   0  0  0  0  0  0  0  0  0  0  0  0
  129.5549  130.3093  121.5463 C   0  0  0  0  0  0  0  0  0  0  0  0
  128.3823  130.8059  121.7852 C   0  0  0  0  0  0  0  0  0  0  0  0
  129.7316  129.8299  120.1611 C   0  0  0  0  0  0  0  0  0  0  0  0
  127.3070  130.8797  120.8513 C   0  0  0  0  0  0  0  0  0  0  0  0
  127.6917  130.5746  119.5882 C   0  0  0  0  0  0  0  0  0  0  0  0
  131.5961  131.3543  125.8770 C   0  0  0  0  0  0  0  0  0  0  0  0
  132.6544  130.8079  123.6941 N   0  0  0  0  0  0  0  0  0  0  0  0
  126.7162  130.4833  118.4857 C   0  0  0  0  0  0  0  0  0  0  0  0
  129.0631  130.3469  119.2120 C   0  0  0  0  0  0  0  0  0  0  0  0
  132.0814  130.1855  122.7066 C   0  0  0  0  0  0  0  0  0  0  0  0
  126.7573  131.2313  117.4760 N   0  0  0  0  0  0  0  0  0  0  0  0
  125.9115  129.4673  118.3194 N   0  0  0  0  0  0  0  0  0  0  0  0
  1  2  1  0
  2  3  2  0
  2  4  1  0
  4  5  1  0
  5  6  2  0
  5  7  1  0
  6  8  1  0
  8  9  2  0
  3 10  1  0
  3 11  1  0
  9 12  1  0
  7 13  1  0
  9 13  1  0
  4 14  1  0
 11 14  2  0
 12 15  2  0
 12 16  1  0
M  END
$$$$

     RDKit          3D

 18 19  0  0  0  0  0  0  0  0999 V2000
  135.1516  127.6282  118.4600 O   0  0  0  0  0  0  0  0  0  0  0  0
  135.0426  128.8542  118.5083 C   0  0  0  0  0  0  0  0  0  0  0  0
  133.9320  129.4301  119.0463 N   0  0  0  0  0  0  0  0  0  0  0  0
  132.7673  128.8079  119.5696 C   0  0  0  0  0  0  0  0  0  0  0  0
  136.1567  129.5677  118.2148 N   0  0  0  0  0  0  0  0  0  0  0  0
  133.8586  130.6924  119.2027 C   0  0  0  0  0  0  0  0  0  0  0  0
  137.3179  128.9354  117.9068 C   0  0  0  0  0  0  0  0  0  0  0  0
  134.8059  131.5481  118.9190 O   0  0  0  0  0  0  0  0  0  0  0  0
  138.1736  129.5888  117.1812 C   0  0  0  0  0  0  0  0  0  0  0  0
  132.5586  131.0859  119.6862 N   0  0  0  0  0  0  0  0  0  0  0  0
  132.0674  132.3397  119.8941 C   0  0  0  0  0  0  0  0  0  0  0  0
  131.6630  129.7496  119.7464 C   0  0  0  0  0  0  0  0  0  0  0  0
  137.7469  130.8568  116.7052 C   0  0  0  0  0  0  0  0  0  0  0  0
  138.6399  131.7134  116.0892 C   0  0  0  0  0  0  0  0  0  0  0  0
  136.4473  131.2019  116.9889 C   0  0  0  0  0  0  0  0  0  0  0  0
  130.7874  129.5280  120.2701 O   0  0  0  0  0  0  0  0  0  0  0  0
  132.4854  133.3975  119.2886 C   0  0  0  0  0  0  0  0  0  0  0  0
  131.1422  132.3618  120.9087 O   0  0  0  0  0  0  0  0  0  0  0  0
  1  2  2  0
  2  3  1  0
  3  4  1  0
  2  5  1  0
  3  6  1  0
  5  7  1  0
  6  8  2  0
  7  9  2  0
  6 10  1  0
 10 11  1  0
  4 12  1  0
 10 12  1  0
  9 13  1  0
 13 14  1  0
  5 15  1  0
 13 15  2  0
 12 16  2  0
 11 17  1  0
 11 18  2  0
M  END
$$$$

     RDKit          3D

 18 17  0  0  0  0  0  0  0  0999 V2000
  134.7390  127.4139  119.3368 O   0  0  0  0  0  0  0  0  0  0  0  0
  134.7260  128.6940  119.4557 C   0  0  0  0  0  0  0  0  0  0  0  0
  133.6447  129.3582  119.9328 N   0  0  0  0  0  0  0  0  0  0  0  0
  132.3219  129.1892  119.4972 C   0  0  0  0  0  0  0  0  0  0  0  0
  131.3697  130.0013  120.0392 C   0  0  0  0  0  0  0  0  0  0  0  0
  135.8718  129.2561  119.4735 N   0  0  0  0  0  0  0  0  0  0  0  0
  129.9843  129.7139  119.8901 C   0  0  0  0  0  0  0  0  0  0  0  0
  129.0623  130.5932  120.4577 C   0  0  0  0  0  0  0  0  0  0  0  0
  137.0705  128.5538  119.3222 C   0  0  0  0  0  0  0  0  0  0  0  0
  138.2092  129.2447  119.1139 C   0  0  0  0  0  0  0  0  0  0  0  0
  129.4489  131.9034  120.6022 C   0  0  0  0  0  0  0  0  0  0  0  0
  130.6189  132.2319  120.9353 O   0  0  0  0  0  0  0  0  0  0  0  0
  135.7478  130.6937  119.4523 C   0  0  0  0  0  0  0  0  0  0  0  0
  136.8890  127.2517  119.2604 O   0  0  0  0  0  0  0  0  0  0  0  0
  134.5535  131.1909  118.7185 C   0  0  0  0  0  0  0  0  0  0  0  0
  134.5909  132.4092  118.0760 C   0  0  0  0  0  0  0  0  0  0  0  0
  128.3657  132.8806  120.5784 N   0  0  0  0  0  0  0  0  0  0  0  0
  135.6933  133.3332  118.4503 C   0  0  0  0  0  0  0  0  0  0  0  0
  1  2  2  0
  2  3  1  0
  3  4  1  0
  4  5  1  0
  2  6  1  0
  5  7  1  0
  7  8  1  0
  6  9  1  0
  9 10  1  0
  8 11  1  0
 11 12  2  0
  6 13  1  0
  9 14  2  0
 13 15  1  0
 15 16  2  3
 11 17  1  0
 16 18  1  0
M  END
$$$$

     RDKit          3D

 18 18  0  0  0  0  0  0  0  0999 V2000
  135.3766  127.1443  119.7662 O   0  0  0  0  0  0  0  0  0  0  0  0
  135.0659  128.4012  119.6443 C   0  0  0  0  0  0  0  0  0  0  0  0
  135.9185  129.1001  119.0009 N   0  0  0  0  0  0  0  0  0  0  0  0
  133.8625  128.8834  120.2407 C   0  0  0  0  0  0  0  0  0  0  0  0
  133.6947  130.2162  119.9139 N   0  0  0  0  0  0  0  0  0  0  0  0
  132.3679  130.7090  119.7857 C   0  0  0  0  0  0  0  0  0  0  0  0
  137.0929  128.6273  118.5658 C   0  0  0  0  0  0  0  0  0  0  0  0
  132.1422  132.0749  119.6299 C   0  0  0  0  0  0  0  0  0  0  0  0
  133.1825  132.8513  119.1898 C   0  0  0  0  0  0  0  0  0  0  0  0
  137.7515  129.2816  117.5278 C   0  0  0  0  0  0  0  0  0  0  0  0
  137.0531  130.5993  117.3549 C   0  0  0  0  0  0  0  0  0  0  0  0
  130.9496  132.8609  119.9582 C   0  0  0  0  0  0  0  0  0  0  0  0
  137.6839  131.6134  116.8210 O   0  0  0  0  0  0  0  0  0  0  0  0
  131.0657  134.1736  120.5383 C   0  0  0  0  0  0  0  0  0  0  0  0
  135.7601  130.7887  117.6216 O   0  0  0  0  0  0  0  0  0  0  0  0
  134.1120  132.3943  118.2344 C   0  0  0  0  0  0  0  0  0  0  0  0
  130.0062  134.8916  121.1847 N   0  0  0  0  0  0  0  0  0  0  0  0
  135.3405  131.6591  118.5421 C   0  0  0  0  0  0  0  0  0  0  0  0
  1  2  2  0
  2  3  1  0
  2  4  1  0
  4  5  1  0
  5  6  1  0
  3  7  1  0
  6  8  1  0
  8  9  2  0
  7 10  1  0
 10 11  1  0
  8 12  1  0
 11 13  2  0
 12 14  2  3
 11 15  1  0
  9 16  1  0
 14 17  1  0
 15 18  1  0
 16 18  1  0
M  END
$$$$

     RDKit          3D

 19 20  0  0  0  0  0  0  0  0999 V2000
  135.4448  127.1176  119.2472 N   0  0  0  0  0  0  0  0  0  0  0  0
  135.0822  128.3758  119.2404 C   0  0  0  0  0  0  0  0  0  0  0  0
  135.8694  129.3238  118.6968 C   0  0  0  0  0  0  0  0  0  0  0  0
  135.5004  130.6790  118.8340 C   0  0  0  0  0  0  0  0  0  0  0  0
  134.2439  131.1232  119.2661 C   0  0  0  0  0  0  0  0  0  0  0  0
  133.3013  130.2465  119.6958 C   0  0  0  0  0  0  0  0  0  0  0  0
  131.9990  130.5243  120.2420 C   0  0  0  0  0  0  0  0  0  0  0  0
  131.5437  131.7374  120.1811 C   0  0  0  0  0  0  0  0  0  0  0  0
  131.3371  129.2432  120.6418 C   0  0  0  0  0  0  0  0  0  0  0  0
  130.0671  129.3727  121.2558 C   0  0  0  0  0  0  0  0  0  0  0  0
  133.8876  128.7697  119.9309 C   0  0  0  0  0  0  0  0  0  0  0  0
  130.2229  132.0523  120.6539 C   0  0  0  0  0  0  0  0  0  0  0  0
  129.6692  133.4045  120.8045 C   0  0  0  0  0  0  0  0  0  0  0  0
  129.5147  131.0059  121.1181 C   0  0  0  0  0  0  0  0  0  0  0  0
  136.9075  128.5608  117.9896 N   0  0  0  0  0  0  0  0  0  0  0  0
  128.5481  133.7027  121.5800 N   0  0  0  0  0  0  0  0  0  0  0  0
  137.9305  129.1704  117.6016 C   0  0  0  0  0  0  0  0  0  0  0  0
  128.1430  131.1333  121.5816 C   0  0  0  0  0  0  0  0  0  0  0  0
  136.3889  127.3711  117.4072 C   0  0  0  0  0  0  0  0  0  0  0  0
  1  2  1  0
  2  3  2  0
  3  4  1  0
  4  5  2  0
  5  6  1  0
  6  7  1  0
  7  8  2  0
  7  9  1  0
  9 10  1  0
  2 11  1  0
  6 11  2  0
  8 12  1  0
 12 13  1  0
 10 14  1  0
 12 14  2  0
  3 15  1  0
 13 16  2  0
 15 17  1  0
 14 18  1  0
 15 19  1  0
M  END
$$$$

     RDKit          3D

 19 19  0  0  0  0  0  0  0  0999 V2000
  135.3766  127.1443  119.7662 N   0  0  0  0  0  0  0  0  0  0  0  0
  135.0075  128.3401  119.2888 C   0  0  0  0  0  0  0  0  0  0  0  0
  133.9915  129.0640  119.8779 C   0  0  0  0  0  0  0  0  0  0  0  0
  133.0852  128.5698  120.8558 C   0  0  0  0  0  0  0  0  0  0  0  0
  132.0339  129.4548  121.0709 C   0  0  0  0  0  0  0  0  0  0  0  0
  135.7624  128.9445  118.3833 O   0  0  0  0  0  0  0  0  0  0  0  0
  133.7285  130.2950  119.3749 C   0  0  0  0  0  0  0  0  0  0  0  0
  132.6005  131.0240  119.7737 C   0  0  0  0  0  0  0  0  0  0  0  0
  132.3066  132.3168  119.1217 C   0  0  0  0  0  0  0  0  0  0  0  0
  131.7753  130.5096  120.5640 C   0  0  0  0  0  0  0  0  0  0  0  0
  133.2274  133.1690  118.5964 C   0  0  0  0  0  0  0  0  0  0  0  0
  137.0188  128.8231  118.2383 C   0  0  0  0  0  0  0  0  0  0  0  0
  134.5986  132.6831  118.5837 C   0  0  0  0  0  0  0  0  0  0  0  0
  137.6945  129.9253  118.3136 O   0  0  0  0  0  0  0  0  0  0  0  0
  135.6455  133.3079  117.8592 C   0  0  0  0  0  0  0  0  0  0  0  0
  130.6100  130.9892  120.7512 O   0  0  0  0  0  0  0  0  0  0  0  0
  137.3180  127.7194  117.4325 O   0  0  0  0  0  0  0  0  0  0  0  0
  138.5420  130.3383  119.0844 C   0  0  0  0  0  0  0  0  0  0  0  0
  135.4536  134.4365  117.1279 C   0  0  0  0  0  0  0  0  0  0  0  0
  1  2  1  0
  2  3  2  3
  3  4  1  0
  4  5  2  0
  2  6  1  0
  3  7  1  0
  7  8  2  0
  8  9  1  0
  5 10  1  0
  8 10  1  0
  9 11  2  3
  6 12  1  0
 11 13  1  0
 12 14  1  0
 13 15  1  0
 10 16  2  0
 12 17  2  0
 14 18  1  0
 15 19  2  0
M  END
$$$$

     RDKit          3D

 19 20  0  0  0  0  0  0  0  0999 V2000
  135.4448  127.1176  119.2472 N   0  0  0  0  0  0  0  0  0  0  0  0
  135.0822  128.3758  119.2404 C   0  0  0  0  0  0  0  0  0  0  0  0
  135.8694  129.3238  118.6968 C   0  0  0  0  0  0  0  0  0  0  0  0
  135.5004  130.6790  118.8340 C   0  0  0  0  0  0  0  0  0  0  0  0
  134.2439  131.1232  119.2661 C   0  0  0  0  0  0  0  0  0  0  0  0
  133.3013  130.2465  119.6958 C   0  0  0  0  0  0  0  0  0  0  0  0
  131.9990  130.5243  120.2420 C   0  0  0  0  0  0  0  0  0  0  0  0
  131.5437  131.7374  120.1811 C   0  0  0  0  0  0  0  0  0  0  0  0
  131.3371  129.2432  120.6418 C   0  0  0  0  0  0  0  0  0  0  0  0
  130.0671  129.3727  121.2558 C   0  0  0  0  0  0  0  0  0  0  0  0
  133.8876  128.7697  119.9309 C   0  0  0  0  0  0  0  0  0  0  0  0
  130.2229  132.0523  120.6539 C   0  0  0  0  0  0  0  0  0  0  0  0
  129.6692  133.4045  120.8045 C   0  0  0  0  0  0  0  0  0  0  0  0
  129.5147  131.0059  121.1181 C   0  0  0  0  0  0  0  0  0  0  0  0
  136.9075  128.5608  117.9896 N   0  0  0  0  0  0  0  0  0  0  0  0
  130.1870  134.5163  120.4696 N   0  0  0  0  0  0  0  0  0  0  0  0
  128.3534  130.9719  121.6222 N   0  0  0  0  0  0  0  0  0  0  0  0
  137.9316  129.1728  117.5999 C   0  0  0  0  0  0  0  0  0  0  0  0
  136.3764  127.3801  117.4007 C   0  0  0  0  0  0  0  0  0  0  0  0
  1  2  1  0
  2  3  2  0
  3  4  1  0
  4  5  2  0
  5  6  1  0
  6  7  1  0
  7  8  2  0
  7  9  1  0
  9 10  1  0
  2 11  1  0
  6 11  2  0
  8 12  1  0
 12 13  1  0
 10 14  1  0
 12 14  2  0
  3 15  1  0
 13 16  2  0
 14 17  1  0
 15 18  1  0
 15 19  1  0
M  END
$$$$

     RDKit          3D

 20 21  0  0  0  0  0  0  0  0999 V2000
  135.4448  127.1176  119.2472 N   0  0  0  0  0  0  0  0  0  0  0  0
  135.0822  128.3758  119.2404 C   0  0  0  0  0  0  0  0  0  0  0  0
  135.8694  129.3238  118.6968 C   0  0  0  0  0  0  0  0  0  0  0  0
  135.5004  130.6790  118.8340 C   0  0  0  0  0  0  0  0  0  0  0  0
  134.2439  131.1232  119.2661 C   0  0  0  0  0  0  0  0  0  0  0  0
  133.3013  130.2465  119.6958 C   0  0  0  0  0  0  0  0  0  0  0  0
  131.9990  130.5243  120.2420 C   0  0  0  0  0  0  0  0  0  0  0  0
  131.5437  131.7374  120.1811 C   0  0  0  0  0  0  0  0  0  0  0  0
  131.3371  129.2432  120.6418 C   0  0  0  0  0  0  0  0  0  0  0  0
  130.0671  129.3727  121.2558 C   0  0  0  0  0  0  0  0  0  0  0  0
  133.8876  128.7697  119.9309 C   0  0  0  0  0  0  0  0  0  0  0  0
  130.2229  132.0523  120.6539 C   0  0  0  0  0  0  0  0  0  0  0  0
  129.6692  133.4045  120.8045 C   0  0  0  0  0  0  0  0  0  0  0  0
  129.7197  130.6925  121.4313 C   0  0  0  0  0  0  0  0  0  0  0  0
  136.9058  128.5512  117.9938 N   0  0  0  0  0  0  0  0  0  0  0  0
  130.1833  134.5396  120.4142 N   0  0  0  0  0  0  0  0  0  0  0  0
  137.9306  129.1610  117.5935 C   0  0  0  0  0  0  0  0  0  0  0  0
  128.5551  130.9101  122.2250 C   0  0  0  0  0  0  0  0  0  0  0  0
  128.9031  133.3336  121.8145 N   0  0  0  0  0  0  0  0  0  0  0  0
  136.6804  127.1896  117.6641 C   0  0  0  0  0  0  0  0  0  0  0  0
  1  2  1  0
  2  3  2  0
  3  4  1  0
  4  5  2  0
  5  6  1  0
  6  7  1  0
  7  8  2  0
  7  9  1  0
  9 10  1  0
  2 11  1  0
  6 11  2  0
  8 12  1  0
 12 13  1  0
 10 14  1  0
 12 14  2  0
  3 15  1  0
 13 16  1  0
 15 17  1  0
 14 18  1  0
 13 19  2  0
 15 20  1  0
M  END
$$$$

     RDKit          3D

 20 21  0  0  0  0  0  0  0  0999 V2000
  135.3766  127.1443  119.7662 O   0  0  0  0  0  0  0  0  0  0  0  0
  135.0659  128.4012  119.6443 C   0  0  0  0  0  0  0  0  0  0  0  0
  135.9185  129.1001  119.0009 N   0  0  0  0  0  0  0  0  0  0  0  0
  133.8625  128.8834  120.2407 C   0  0  0  0  0  0  0  0  0  0  0  0
  133.6947  130.2162  119.9139 N   0  0  0  0  0  0  0  0  0  0  0  0
  132.3679  130.7090  119.7857 C   0  0  0  0  0  0  0  0  0  0  0  0
  137.0929  128.6273  118.5658 C   0  0  0  0  0  0  0  0  0  0  0  0
  132.1422  132.0749  119.6299 C   0  0  0  0  0  0  0  0  0  0  0  0
  131.4259  129.7740  119.8842 C   0  0  0  0  0  0  0  0  0  0  0  0
  130.0225  130.0579  119.8984 C   0  0  0  0  0  0  0  0  0  0  0  0
  129.6564  131.3662  120.0495 C   0  0  0  0  0  0  0  0  0  0  0  0
  130.4972  132.4724  120.0860 C   0  0  0  0  0  0  0  0  0  0  0  0
  137.6847  129.1996  117.4562 C   0  0  0  0  0  0  0  0  0  0  0  0
  128.1568  131.4984  120.3627 C   0  0  0  0  0  0  0  0  0  0  0  0
  137.3035  130.5353  117.3277 C   0  0  0  0  0  0  0  0  0  0  0  0
  138.0833  131.4521  117.0273 O   0  0  0  0  0  0  0  0  0  0  0  0
  127.3168  132.1470  119.8993 N   0  0  0  0  0  0  0  0  0  0  0  0
  136.0004  130.9434  117.4447 N   0  0  0  0  0  0  0  0  0  0  0  0
  135.1582  130.1524  118.2007 C   0  0  0  0  0  0  0  0  0  0  0  0
  127.7445  130.5678  121.3361 C   0  0  0  0  0  0  0  0  0  0  0  0
  1  2  2  0
  2  3  1  0
  2  4  1  0
  4  5  1  0
  5  6  1  0
  3  7  1  0
  6  8  1  0
  6  9  2  0
  9 10  1  0
 10 11  2  0
  8 12  2  0
 11 12  1  0
  7 13  1  0
 11 14  1  0
 13 15  1  0
 15 16  2  0
 14 17  2  0
 15 18  1  0
  3 19  1  0
 18 19  1  0
 14 20  1  0
M  END
$$$$
