
     RDKit          3D

 10 10  0  0  0  0  0  0  0  0999 V2000
  129.5153  130.5545  124.3869 N   0  0  0  0  0  0  0  0  0  0  0  0
  130.4535  130.7442  123.7434 C   0  0  0  0  0  0  0  0  0  0  0  0
  131.5963  131.3592  124.2755 C   0  0  0  0  0  0  0  0  0  0  0  0
  130.4611  130.4440  122.5042 N   0  0  0  0  0  0  0  0  0  0  0  0
  131.4530  130.7693  121.7012 C   0  0  0  0  0  0  0  0  0  0  0  0
  132.6199  131.3668  122.2489 C   0  0  0  0  0  0  0  0  0  0  0  0
  131.2700  130.2260  120.2671 C   0  0  0  0  0  0  0  0  0  0  0  0
  130.2673  129.5009  119.9367 C   0  0  0  0  0  0  0  0  0  0  0  0
  132.5781  131.7446  123.7023 N   0  0  0  0  0  0  0  0  0  0  0  0
  129.7559  129.6034  118.9618 C   0  0  0  0  0  0  0  0  0  0  0  0
  1  2  1  0
  2  3  2  0
  2  4  1  0
  4  5  2  0
  5  6  1  0
  5  7  1  0
  7  8  1  0
  3  9  1  0
  6  9  2  0
  8 10  2  0
M  END
$$$$
