
     RDKit          3D

 10  9  0  0  0  0  0  0  0  0999 V2000
  130.6045  131.5919  125.8124 O   0  0  0  0  0  0  0  0  0  0  0  0
  130.9488  131.8629  124.9288 C   0  0  0  0  0  0  0  0  0  0  0  0
  131.3443  131.1796  123.7559 C   0  0  0  0  0  0  0  0  0  0  0  0
  130.4464  130.6988  122.9867 C   0  0  0  0  0  0  0  0  0  0  0  0
  129.0363  130.7462  123.3491 C   0  0  0  0  0  0  0  0  0  0  0  0
  130.8665  130.3765  121.6748 C   0  0  0  0  0  0  0  0  0  0  0  0
  130.0189  129.7433  120.5953 C   0  0  0  0  0  0  0  0  0  0  0  0
  131.4558  133.1377  124.5077 N   0  0  0  0  0  0  0  0  0  0  0  0
  130.6632  129.3787  119.2085 C   0  0  0  0  0  0  0  0  0  0  0  0
  130.1208  129.8549  118.0568 C   0  0  0  0  0  0  0  0  0  0  0  0
  1  2  2  0
  2  3  1  0
  3  4  2  3
  4  5  1  0
  4  6  1  0
  6  7  1  0
  2  8  1  0
  7  9  1  0
  9 10  1  0
M  END
$$$$
