
     RDKit          3D

 12 13  0  0  0  0  0  0  0  0999 V2000
  129.1801  132.0520  122.1734 C   0  0  0  0  0  0  0  0  0  0  0  0
  130.4177  132.3221  122.3303 N   0  0  0  0  0  0  0  0  0  0  0  0
  130.8394  133.2253  123.3569 C   0  0  0  0  0  0  0  0  0  0  0  0
  128.8682  131.0047  121.2436 C   0  0  0  0  0  0  0  0  0  0  0  0
  129.7209  130.9612  120.1517 C   0  0  0  0  0  0  0  0  0  0  0  0
  132.2740  133.3642  123.6015 N   0  0  0  0  0  0  0  0  0  0  0  0
  131.4078  131.7936  121.5806 C   0  0  0  0  0  0  0  0  0  0  0  0
  130.9753  131.4155  120.3201 N   0  0  0  0  0  0  0  0  0  0  0  0
  132.6316  131.7229  122.1005 C   0  0  0  0  0  0  0  0  0  0  0  0
  129.5647  130.0236  118.8786 C   0  0  0  0  0  0  0  0  0  0  0  0
  130.0297  133.7294  123.9914 O   0  0  0  0  0  0  0  0  0  0  0  0
  132.8918  132.0996  123.5130 C   0  0  0  0  0  0  0  0  0  0  0  0
  1  2  1  0
  2  3  1  0
  1  4  1  0
  4  5  1  0
  3  6  1  0
  2  7  1  0
  5  8  2  0
  7  8  1  0
  7  9  2  0
  5 10  1  0
  3 11  2  0
  6 12  2  0
  9 12  1  0
M  END
$$$$
