
     RDKit          3D

 13 14  0  0  0  0  0  0  0  0999 V2000
  125.4950  133.7984  118.2379 C   0  0  0  0  0  0  0  0  0  0  0  0
  125.7455  132.5625  118.2295 C   0  0  0  0  0  0  0  0  0  0  0  0
  124.9329  131.5565  117.7198 C   0  0  0  0  0  0  0  0  0  0  0  0
  126.7412  131.9743  118.8282 N   0  0  0  0  0  0  0  0  0  0  0  0
  125.2387  130.2412  117.8345 C   0  0  0  0  0  0  0  0  0  0  0  0
  126.1816  129.8097  118.8373 C   0  0  0  0  0  0  0  0  0  0  0  0
  126.2631  134.8524  118.8790 C   0  0  0  0  0  0  0  0  0  0  0  0
  127.4609  132.7229  119.7057 C   0  0  0  0  0  0  0  0  0  0  0  0
  127.1259  130.7018  119.2361 C   0  0  0  0  0  0  0  0  0  0  0  0
  125.5809  136.0882  119.0148 C   0  0  0  0  0  0  0  0  0  0  0  0
  127.1999  134.1230  119.9179 N   0  0  0  0  0  0  0  0  0  0  0  0
  128.3784  130.4205  119.5234 O   0  0  0  0  0  0  0  0  0  0  0  0
  126.1829  128.4519  119.2889 C   0  0  0  0  0  0  0  0  0  0  0  0
  1  2  2  0
  2  3  1  0
  2  4  1  0
  3  5  1  0
  5  6  2  0
  1  7  1  0
  4  8  1  0
  4  9  1  0
  6  9  1  0
  7 10  2  0
  7 11  1  0
  8 11  2  0
  9 12  2  0
  6 13  1  0
M  END
$$$$
