
     RDKit          3D

 14 15  0  0  0  0  0  0  0  0999 V2000
  135.1869  127.4155  119.4470 N   0  0  0  0  0  0  0  0  0  0  0  0
  134.7858  128.5587  118.9918 C   0  0  0  0  0  0  0  0  0  0  0  0
  133.7587  129.2906  119.5942 C   0  0  0  0  0  0  0  0  0  0  0  0
  135.3923  129.2016  117.9482 C   0  0  0  0  0  0  0  0  0  0  0  0
  132.9969  128.8459  120.7041 N   0  0  0  0  0  0  0  0  0  0  0  0
  133.3513  130.3707  119.3712 C   0  0  0  0  0  0  0  0  0  0  0  0
  136.3565  128.4982  117.1775 C   0  0  0  0  0  0  0  0  0  0  0  0
  135.1079  130.4858  117.5194 C   0  0  0  0  0  0  0  0  0  0  0  0
  133.8329  131.1177  118.1920 C   0  0  0  0  0  0  0  0  0  0  0  0
  132.2065  131.0267  120.0607 C   0  0  0  0  0  0  0  0  0  0  0  0
  136.4541  127.1376  117.2743 C   0  0  0  0  0  0  0  0  0  0  0  0
  132.1438  129.5638  121.1880 C   0  0  0  0  0  0  0  0  0  0  0  0
  137.1638  129.2123  116.4128 C   0  0  0  0  0  0  0  0  0  0  0  0
  131.2855  129.5408  122.1953 N   0  0  0  0  0  0  0  0  0  0  0  0
  1  2  1  0
  2  3  1  0
  2  4  2  0
  3  5  1  0
  3  6  2  0
  4  7  1  0
  4  8  1  0
  6  9  1  0
  8  9  2  0
  6 10  1  0
  7 11  1  0
  5 12  2  0
 10 12  1  0
  7 13  2  0
 12 14  1  0
M  END
$$$$
