
     RDKit          3D

 15 16  0  0  0  0  0  0  0  0999 V2000
  135.1869  127.4155  119.4470 N   0  0  0  0  0  0  0  0  0  0  0  0
  134.7858  128.5587  118.9918 C   0  0  0  0  0  0  0  0  0  0  0  0
  133.7587  129.2906  119.5942 C   0  0  0  0  0  0  0  0  0  0  0  0
  135.3923  129.2016  117.9482 C   0  0  0  0  0  0  0  0  0  0  0  0
  133.3393  130.4865  119.0824 C   0  0  0  0  0  0  0  0  0  0  0  0
  134.9041  130.2797  117.2958 C   0  0  0  0  0  0  0  0  0  0  0  0
  133.9263  131.1416  117.8524 C   0  0  0  0  0  0  0  0  0  0  0  0
  136.5555  128.5400  117.3009 N   0  0  0  0  0  0  0  0  0  0  0  0
  132.2894  131.1504  119.7311 O   0  0  0  0  0  0  0  0  0  0  0  0
  131.6108  130.6346  120.7218 C   0  0  0  0  0  0  0  0  0  0  0  0
  137.1557  127.6129  117.9321 C   0  0  0  0  0  0  0  0  0  0  0  0
  130.2491  131.0555  120.9589 C   0  0  0  0  0  0  0  0  0  0  0  0
  129.2973  130.3356  121.7303 C   0  0  0  0  0  0  0  0  0  0  0  0
  128.1190  130.9503  122.1740 C   0  0  0  0  0  0  0  0  0  0  0  0
  136.4305  127.1775  118.9305 N   0  0  0  0  0  0  0  0  0  0  0  0
  1  2  1  0
  2  3  1  0
  2  4  2  0
  3  5  2  0
  4  6  1  0
  5  7  1  0
  6  7  2  0
  4  8  1  0
  5  9  1  0
  9 10  1  0
  8 11  2  0
 10 12  1  0
 12 13  1  0
 13 14  1  0
  1 15  2  0
 11 15  1  0
M  END
$$$$
