
     RDKit          3D

 18 19  0  0  0  0  0  0  0  0999 V2000
  135.1516  127.6282  118.4600 O   0  0  0  0  0  0  0  0  0  0  0  0
  135.0426  128.8542  118.5083 C   0  0  0  0  0  0  0  0  0  0  0  0
  133.9320  129.4301  119.0463 N   0  0  0  0  0  0  0  0  0  0  0  0
  132.7673  128.8079  119.5696 C   0  0  0  0  0  0  0  0  0  0  0  0
  136.1567  129.5677  118.2148 N   0  0  0  0  0  0  0  0  0  0  0  0
  133.8586  130.6924  119.2027 C   0  0  0  0  0  0  0  0  0  0  0  0
  137.3179  128.9354  117.9068 C   0  0  0  0  0  0  0  0  0  0  0  0
  134.8059  131.5481  118.9190 O   0  0  0  0  0  0  0  0  0  0  0  0
  138.1736  129.5888  117.1812 C   0  0  0  0  0  0  0  0  0  0  0  0
  132.5586  131.0859  119.6862 N   0  0  0  0  0  0  0  0  0  0  0  0
  132.0674  132.3397  119.8941 C   0  0  0  0  0  0  0  0  0  0  0  0
  131.6630  129.7496  119.7464 C   0  0  0  0  0  0  0  0  0  0  0  0
  137.7469  130.8568  116.7052 C   0  0  0  0  0  0  0  0  0  0  0  0
  138.6399  131.7134  116.0892 C   0  0  0  0  0  0  0  0  0  0  0  0
  136.4473  131.2019  116.9889 C   0  0  0  0  0  0  0  0  0  0  0  0
  130.7874  129.5280  120.2701 O   0  0  0  0  0  0  0  0  0  0  0  0
  132.4854  133.3975  119.2886 C   0  0  0  0  0  0  0  0  0  0  0  0
  131.1422  132.3618  120.9087 O   0  0  0  0  0  0  0  0  0  0  0  0
  1  2  2  0
  2  3  1  0
  3  4  1  0
  2  5  1  0
  3  6  1  0
  5  7  1  0
  6  8  2  0
  7  9  2  0
  6 10  1  0
 10 11  1  0
  4 12  1  0
 10 12  1  0
  9 13  1  0
 13 14  1  0
  5 15  1  0
 13 15  2  0
 12 16  2  0
 11 17  1  0
 11 18  2  0
M  END
$$$$
