
     RDKit          3D

 10 10  0  0  0  0  0  0  0  0999 V2000
  134.7829  128.6847  116.1951 C   0  0  0  0  0  0  0  0  0  0  0  0
  134.7959  128.9138  117.4326 N   0  0  0  0  0  0  0  0  0  0  0  0
  133.8119  129.1719  118.2654 C   0  0  0  0  0  0  0  0  0  0  0  0
  136.0912  129.0031  118.0466 C   0  0  0  0  0  0  0  0  0  0  0  0
  136.0134  129.1640  119.3968 O   0  0  0  0  0  0  0  0  0  0  0  0
  133.9349  129.0700  119.6558 N   0  0  0  0  0  0  0  0  0  0  0  0
  135.1673  128.6190  120.3489 C   0  0  0  0  0  0  0  0  0  0  0  0
  135.5132  129.4733  115.4735 O   0  0  0  0  0  0  0  0  0  0  0  0
  135.2781  128.5723  121.6545 O   0  0  0  0  0  0  0  0  0  0  0  0
  132.6170  129.6866  118.0000 O   0  0  0  0  0  0  0  0  0  0  0  0
  1  2  1  0
  2  3  1  0
  2  4  1  0
  4  5  1  0
  3  6  1  0
  5  7  1  0
  6  7  1  0
  1  8  2  0
  7  9  2  0
  3 10  2  0
M  END
$$$$
