
     RDKit          3D

 18 17  0  0  0  0  0  0  0  0999 V2000
  134.7390  127.4139  119.3368 O   0  0  0  0  0  0  0  0  0  0  0  0
  134.7260  128.6940  119.4557 C   0  0  0  0  0  0  0  0  0  0  0  0
  133.6447  129.3582  119.9328 N   0  0  0  0  0  0  0  0  0  0  0  0
  132.3219  129.1892  119.4972 C   0  0  0  0  0  0  0  0  0  0  0  0
  131.3697  130.0013  120.0392 C   0  0  0  0  0  0  0  0  0  0  0  0
  135.8718  129.2561  119.4735 N   0  0  0  0  0  0  0  0  0  0  0  0
  129.9843  129.7139  119.8901 C   0  0  0  0  0  0  0  0  0  0  0  0
  129.0623  130.5932  120.4577 C   0  0  0  0  0  0  0  0  0  0  0  0
  137.0705  128.5538  119.3222 C   0  0  0  0  0  0  0  0  0  0  0  0
  138.2092  129.2447  119.1139 C   0  0  0  0  0  0  0  0  0  0  0  0
  129.4489  131.9034  120.6022 C   0  0  0  0  0  0  0  0  0  0  0  0
  130.6189  132.2319  120.9353 O   0  0  0  0  0  0  0  0  0  0  0  0
  135.7478  130.6937  119.4523 C   0  0  0  0  0  0  0  0  0  0  0  0
  136.8890  127.2517  119.2604 O   0  0  0  0  0  0  0  0  0  0  0  0
  134.5535  131.1909  118.7185 C   0  0  0  0  0  0  0  0  0  0  0  0
  134.5909  132.4092  118.0760 C   0  0  0  0  0  0  0  0  0  0  0  0
  128.3657  132.8806  120.5784 N   0  0  0  0  0  0  0  0  0  0  0  0
  135.6933  133.3332  118.4503 C   0  0  0  0  0  0  0  0  0  0  0  0
  1  2  2  0
  2  3  1  0
  3  4  1  0
  4  5  1  0
  2  6  1  0
  5  7  1  0
  7  8  1  0
  6  9  1  0
  9 10  1  0
  8 11  1  0
 11 12  2  0
  6 13  1  0
  9 14  2  0
 13 15  1  0
 15 16  2  3
 11 17  1  0
 16 18  1  0
M  END
$$$$
