
     RDKit          3D

 18 18  0  0  0  0  0  0  0  0999 V2000
  135.3766  127.1443  119.7662 O   0  0  0  0  0  0  0  0  0  0  0  0
  135.0659  128.4012  119.6443 C   0  0  0  0  0  0  0  0  0  0  0  0
  135.9185  129.1001  119.0009 N   0  0  0  0  0  0  0  0  0  0  0  0
  133.8625  128.8834  120.2407 C   0  0  0  0  0  0  0  0  0  0  0  0
  133.6947  130.2162  119.9139 N   0  0  0  0  0  0  0  0  0  0  0  0
  132.3679  130.7090  119.7857 C   0  0  0  0  0  0  0  0  0  0  0  0
  137.0929  128.6273  118.5658 C   0  0  0  0  0  0  0  0  0  0  0  0
  132.1422  132.0749  119.6299 C   0  0  0  0  0  0  0  0  0  0  0  0
  133.1825  132.8513  119.1898 C   0  0  0  0  0  0  0  0  0  0  0  0
  137.7515  129.2816  117.5278 C   0  0  0  0  0  0  0  0  0  0  0  0
  137.0531  130.5993  117.3549 C   0  0  0  0  0  0  0  0  0  0  0  0
  130.9496  132.8609  119.9582 C   0  0  0  0  0  0  0  0  0  0  0  0
  137.6839  131.6134  116.8210 O   0  0  0  0  0  0  0  0  0  0  0  0
  131.0657  134.1736  120.5383 C   0  0  0  0  0  0  0  0  0  0  0  0
  135.7601  130.7887  117.6216 O   0  0  0  0  0  0  0  0  0  0  0  0
  134.1120  132.3943  118.2344 C   0  0  0  0  0  0  0  0  0  0  0  0
  130.0062  134.8916  121.1847 N   0  0  0  0  0  0  0  0  0  0  0  0
  135.3405  131.6591  118.5421 C   0  0  0  0  0  0  0  0  0  0  0  0
  1  2  2  0
  2  3  1  0
  2  4  1  0
  4  5  1  0
  5  6  1  0
  3  7  1  0
  6  8  1  0
  8  9  2  0
  7 10  1  0
 10 11  1  0
  8 12  1  0
 11 13  2  0
 12 14  2  3
 11 15  1  0
  9 16  1  0
 14 17  1  0
 15 18  1  0
 16 18  1  0
M  END
$$$$
