
     RDKit          3D

 20 21  0  0  0  0  0  0  0  0999 V2000
  135.4448  127.1176  119.2472 N   0  0  0  0  0  0  0  0  0  0  0  0
  135.0822  128.3758  119.2404 C   0  0  0  0  0  0  0  0  0  0  0  0
  135.8694  129.3238  118.6968 C   0  0  0  0  0  0  0  0  0  0  0  0
  135.5004  130.6790  118.8340 C   0  0  0  0  0  0  0  0  0  0  0  0
  134.2439  131.1232  119.2661 C   0  0  0  0  0  0  0  0  0  0  0  0
  133.3013  130.2465  119.6958 C   0  0  0  0  0  0  0  0  0  0  0  0
  131.9990  130.5243  120.2420 C   0  0  0  0  0  0  0  0  0  0  0  0
  131.5437  131.7374  120.1811 C   0  0  0  0  0  0  0  0  0  0  0  0
  131.3371  129.2432  120.6418 C   0  0  0  0  0  0  0  0  0  0  0  0
  130.0671  129.3727  121.2558 C   0  0  0  0  0  0  0  0  0  0  0  0
  133.8876  128.7697  119.9309 C   0  0  0  0  0  0  0  0  0  0  0  0
  130.2229  132.0523  120.6539 C   0  0  0  0  0  0  0  0  0  0  0  0
  129.6692  133.4045  120.8045 C   0  0  0  0  0  0  0  0  0  0  0  0
  129.7197  130.6925  121.4313 C   0  0  0  0  0  0  0  0  0  0  0  0
  136.9058  128.5512  117.9938 N   0  0  0  0  0  0  0  0  0  0  0  0
  130.1833  134.5396  120.4142 N   0  0  0  0  0  0  0  0  0  0  0  0
  137.9306  129.1610  117.5935 C   0  0  0  0  0  0  0  0  0  0  0  0
  128.5551  130.9101  122.2250 C   0  0  0  0  0  0  0  0  0  0  0  0
  128.9031  133.3336  121.8145 N   0  0  0  0  0  0  0  0  0  0  0  0
  136.6804  127.1896  117.6641 C   0  0  0  0  0  0  0  0  0  0  0  0
  1  2  1  0
  2  3  2  0
  3  4  1  0
  4  5  2  0
  5  6  1  0
  6  7  1  0
  7  8  2  0
  7  9  1  0
  9 10  1  0
  2 11  1  0
  6 11  2  0
  8 12  1  0
 12 13  1  0
 10 14  1  0
 12 14  2  0
  3 15  1  0
 13 16  1  0
 15 17  1  0
 14 18  1  0
 13 19  2  0
 15 20  1  0
M  END
$$$$
