
     RDKit          3D

 11 11  0  0  0  0  0  0  0  0999 V2000
  129.1801  132.0520  122.1734 C   0  0  0  0  0  0  0  0  0  0  0  0
  128.2475  131.1524  121.7515 C   0  0  0  0  0  0  0  0  0  0  0  0
  128.8194  130.1370  120.9717 C   0  0  0  0  0  0  0  0  0  0  0  0
  128.0466  128.9192  120.5696 C   0  0  0  0  0  0  0  0  0  0  0  0
  130.4802  132.1349  121.8257 C   0  0  0  0  0  0  0  0  0  0  0  0
  130.0628  130.3542  120.4211 C   0  0  0  0  0  0  0  0  0  0  0  0
  130.9284  131.3206  120.8432 C   0  0  0  0  0  0  0  0  0  0  0  0
  131.2078  133.2136  122.3483 C   0  0  0  0  0  0  0  0  0  0  0  0
  130.6911  134.2341  123.1010 C   0  0  0  0  0  0  0  0  0  0  0  0
  132.6460  133.1572  122.1317 C   0  0  0  0  0  0  0  0  0  0  0  0
  133.5253  134.1626  122.5174 C   0  0  0  0  0  0  0  0  0  0  0  0
  1  2  1  0
  2  3  2  0
  3  4  1  0
  1  5  2  0
  3  6  1  0
  5  7  1  0
  6  7  2  0
  5  8  1  0
  8  9  2  0
  8 10  1  0
 10 11  2  0
M  END
$$$$
