
     RDKit          3D

 11 11  0  0  0  0  0  0  0  0999 V2000
  130.5628  131.2975  125.7872 O   0  0  0  0  0  0  0  0  0  0  0  0
  130.7835  131.3438  124.7469 C   0  0  0  0  0  0  0  0  0  0  0  0
  130.5527  132.4630  123.9947 C   0  0  0  0  0  0  0  0  0  0  0  0
  131.3909  130.1432  124.2471 C   0  0  0  0  0  0  0  0  0  0  0  0
  130.7648  132.4648  122.5851 C   0  0  0  0  0  0  0  0  0  0  0  0
  131.0859  131.3386  121.9746 C   0  0  0  0  0  0  0  0  0  0  0  0
  131.2535  130.1472  122.6684 C   0  0  0  0  0  0  0  0  0  0  0  0
  131.1142  131.2873  120.6764 O   0  0  0  0  0  0  0  0  0  0  0  0
  131.2269  130.1113  119.9439 C   0  0  0  0  0  0  0  0  0  0  0  0
  131.6084  130.1390  118.5434 C   0  0  0  0  0  0  0  0  0  0  0  0
  132.3671  129.0793  117.9474 O   0  0  0  0  0  0  0  0  0  0  0  0
  1  2  1  0
  2  3  2  0
  2  4  1  0
  3  5  1  0
  5  6  2  0
  4  7  2  0
  6  7  1  0
  6  8  1  0
  8  9  1  0
  9 10  1  0
 10 11  1  0
M  END
$$$$
