
     RDKit          3D

 11 10  0  0  0  0  0  0  0  0999 V2000
  129.3755  130.7530  124.3132 N   0  0  0  0  0  0  0  0  0  0  0  0
  130.5287  130.7603  123.7240 C   0  0  0  0  0  0  0  0  0  0  0  0
  130.6613  130.7501  122.3977 N   0  0  0  0  0  0  0  0  0  0  0  0
  129.4534  130.5633  121.7096 C   0  0  0  0  0  0  0  0  0  0  0  0
  131.8077  131.0173  124.5145 C   0  0  0  0  0  0  0  0  0  0  0  0
  129.3763  130.5759  120.2682 C   0  0  0  0  0  0  0  0  0  0  0  0
  130.5839  130.2638  119.6106 C   0  0  0  0  0  0  0  0  0  0  0  0
  128.2194  130.7869  119.6928 C   0  0  0  0  0  0  0  0  0  0  0  0
  130.6213  129.8723  118.2247 C   0  0  0  0  0  0  0  0  0  0  0  0
  127.0831  131.3002  120.2845 C   0  0  0  0  0  0  0  0  0  0  0  0
  133.0202  130.9910  123.9409 N   0  0  0  0  0  0  0  0  0  0  0  0
  1  2  1  0
  2  3  2  3
  3  4  1  0
  2  5  1  0
  4  6  1  0
  6  7  1  0
  6  8  2  3
  7  9  2  0
  8 10  1  0
  5 11  1  0
M  END
$$$$
