
     RDKit          3D

 12 12  0  0  0  0  0  0  0  0999 V2000
  126.2997  134.2062  119.0405 C   0  0  0  0  0  0  0  0  0  0  0  0
  125.3613  134.4553  119.6670 C   0  0  0  0  0  0  0  0  0  0  0  0
  124.7301  133.5280  120.4089 N   0  0  0  0  0  0  0  0  0  0  0  0
  125.2262  132.3213  120.4751 C   0  0  0  0  0  0  0  0  0  0  0  0
  126.2415  131.9571  119.7036 C   0  0  0  0  0  0  0  0  0  0  0  0
  127.0183  132.9350  118.9179 C   0  0  0  0  0  0  0  0  0  0  0  0
  126.8341  130.6751  119.4434 O   0  0  0  0  0  0  0  0  0  0  0  0
  128.0055  130.1481  118.9768 C   0  0  0  0  0  0  0  0  0  0  0  0
  128.9298  129.6727  119.8131 C   0  0  0  0  0  0  0  0  0  0  0  0
  128.5149  129.3236  121.0016 O   0  0  0  0  0  0  0  0  0  0  0  0
  124.6487  135.5818  119.4008 N   0  0  0  0  0  0  0  0  0  0  0  0
  130.0805  129.3408  119.6632 O   0  0  0  0  0  0  0  0  0  0  0  0
  1  2  1  0
  2  3  2  0
  3  4  1  0
  4  5  2  0
  1  6  2  0
  5  6  1  0
  5  7  1  0
  7  8  1  0
  8  9  1  0
  9 10  1  0
  2 11  1  0
  9 12  2  0
M  END
$$$$
