
     RDKit          3D

 20 23  0  0  0  0  0  0  0  0999 V2000
  129.5033  130.0631  122.3637 C   0  0  0  0  0  0  0  0  0  0  0  0
  130.4818  130.6409  121.7849 C   0  0  0  0  0  0  0  0  0  0  0  0
  131.4657  130.0196  121.0409 C   0  0  0  0  0  0  0  0  0  0  0  0
  130.7560  131.9277  122.0848 C   0  0  0  0  0  0  0  0  0  0  0  0
  129.7992  132.7865  122.6588 C   0  0  0  0  0  0  0  0  0  0  0  0
  132.0406  132.5959  121.9262 C   0  0  0  0  0  0  0  0  0  0  0  0
  132.6881  130.5146  120.8877 C   0  0  0  0  0  0  0  0  0  0  0  0
  133.0445  131.5689  121.6836 N   0  0  0  0  0  0  0  0  0  0  0  0
  133.5814  129.9806  120.1015 C   0  0  0  0  0  0  0  0  0  0  0  0
  133.3970  128.9254  119.3640 N   0  0  0  0  0  0  0  0  0  0  0  0
  132.4166  133.9748  122.0984 N   0  0  0  0  0  0  0  0  0  0  0  0
  134.7274  130.6554  120.1351 N   0  0  0  0  0  0  0  0  0  0  0  0
  131.4721  134.7898  122.4722 C   0  0  0  0  0  0  0  0  0  0  0  0
  135.6704  130.4261  119.4933 C   0  0  0  0  0  0  0  0  0  0  0  0
  128.7333  132.5977  123.0747 N   0  0  0  0  0  0  0  0  0  0  0  0
  135.5123  129.2929  118.6760 C   0  0  0  0  0  0  0  0  0  0  0  0
  128.6584  130.8611  123.1078 C   0  0  0  0  0  0  0  0  0  0  0  0
  134.3143  128.6049  118.5289 C   0  0  0  0  0  0  0  0  0  0  0  0
  134.2977  127.5805  117.4246 O   0  0  0  0  0  0  0  0  0  0  0  0
  130.4461  133.9999  122.7181 N   0  0  0  0  0  0  0  0  0  0  0  0
  1  2  1  0
  2  3  2  0
  2  4  1  0
  4  5  2  0
  4  6  1  0
  3  7  1  0
  6  8  1  0
  7  8  1  0
  7  9  2  3
  9 10  1  0
  6 11  2  0
  9 12  1  0
 11 13  1  0
 12 14  1  0
  5 15  1  0
 14 16  2  0
  1 17  2  0
 15 17  1  0
 10 18  1  0
 16 18  1  0
 18 19  2  0
  5 20  1  0
 13 20  2  0
M  END
$$$$

     RDKit          3D

 21 23  0  0  0  0  0  0  0  0999 V2000
  129.5033  130.0631  122.3637 C   0  0  0  0  0  0  0  0  0  0  0  0
  130.4818  130.6409  121.7849 C   0  0  0  0  0  0  0  0  0  0  0  0
  131.4657  130.0196  121.0409 C   0  0  0  0  0  0  0  0  0  0  0  0
  130.7560  131.9277  122.0848 C   0  0  0  0  0  0  0  0  0  0  0  0
  132.7165  129.5164  121.4272 C   0  0  0  0  0  0  0  0  0  0  0  0
  128.6316  130.6300  123.0265 N   0  0  0  0  0  0  0  0  0  0  0  0
  133.7803  129.1042  120.7206 C   0  0  0  0  0  0  0  0  0  0  0  0
  131.5769  132.8290  121.3895 C   0  0  0  0  0  0  0  0  0  0  0  0
  134.2269  129.7496  119.6644 C   0  0  0  0  0  0  0  0  0  0  0  0
  133.7275  130.9670  119.3511 C   0  0  0  0  0  0  0  0  0  0  0  0
  130.3621  132.5664  123.1502 C   0  0  0  0  0  0  0  0  0  0  0  0
  129.5727  132.1321  124.1609 N   0  0  0  0  0  0  0  0  0  0  0  0
  135.3284  129.1656  119.0818 C   0  0  0  0  0  0  0  0  0  0  0  0
  129.3304  130.8236  124.0338 C   0  0  0  0  0  0  0  0  0  0  0  0
  135.9092  129.8220  118.0265 C   0  0  0  0  0  0  0  0  0  0  0  0
  132.7781  131.6877  119.8610 C   0  0  0  0  0  0  0  0  0  0  0  0
  134.3634  131.5748  118.2853 C   0  0  0  0  0  0  0  0  0  0  0  0
  135.2818  130.8938  117.4056 C   0  0  0  0  0  0  0  0  0  0  0  0
  131.9109  134.0649  122.0668 N   0  0  0  0  0  0  0  0  0  0  0  0
  129.8940  130.0488  125.0078 N   0  0  0  0  0  0  0  0  0  0  0  0
  132.0067  132.5896  120.1973 N   0  0  0  0  0  0  0  0  0  0  0  0
  1  2  1  0
  2  3  2  0
  2  4  1  0
  3  5  1  0
  1  6  2  0
  5  7  2  0
  4  8  1  0
  7  9  1  0
  9 10  2  0
  4 11  2  0
 11 12  1  0
  9 13  1  0
  6 14  1  0
 12 14  2  0
 13 15  2  0
 10 16  1  0
 10 17  1  0
 15 18  1  0
 17 18  2  0
  8 19  1  0
 14 20  1  0
  8 21  1  0
 16 21  2  0
M  END
$$$$

     RDKit          3D

 21 22  0  0  0  0  0  0  0  0999 V2000
  129.5033  130.0631  122.3637 C   0  0  0  0  0  0  0  0  0  0  0  0
  130.4818  130.6409  121.7849 C   0  0  0  0  0  0  0  0  0  0  0  0
  131.4657  130.0196  121.0409 C   0  0  0  0  0  0  0  0  0  0  0  0
  130.7560  131.9277  122.0848 C   0  0  0  0  0  0  0  0  0  0  0  0
  132.7165  129.5164  121.4272 C   0  0  0  0  0  0  0  0  0  0  0  0
  128.6316  130.6300  123.0265 N   0  0  0  0  0  0  0  0  0  0  0  0
  133.7803  129.1042  120.7206 C   0  0  0  0  0  0  0  0  0  0  0  0
  134.8578  128.2073  121.0726 N   0  0  0  0  0  0  0  0  0  0  0  0
  133.8208  129.8230  119.5629 C   0  0  0  0  0  0  0  0  0  0  0  0
  130.1218  132.4746  123.2057 C   0  0  0  0  0  0  0  0  0  0  0  0
  134.5644  129.4834  118.5573 C   0  0  0  0  0  0  0  0  0  0  0  0
  133.1612  130.9560  119.6439 C   0  0  0  0  0  0  0  0  0  0  0  0
  135.2445  128.3669  118.2877 N   0  0  0  0  0  0  0  0  0  0  0  0
  136.1738  128.0151  117.2339 C   0  0  0  0  0  0  0  0  0  0  0  0
  129.0314  131.9562  123.1597 N   0  0  0  0  0  0  0  0  0  0  0  0
  134.7108  130.6486  117.8548 N   0  0  0  0  0  0  0  0  0  0  0  0
  133.7633  132.0687  119.1519 C   0  0  0  0  0  0  0  0  0  0  0  0
  137.0740  126.8704  117.0690 C   0  0  0  0  0  0  0  0  0  0  0  0
  130.7227  133.3383  123.8802 N   0  0  0  0  0  0  0  0  0  0  0  0
  135.0357  132.1346  118.8766 C   0  0  0  0  0  0  0  0  0  0  0  0
  135.9580  132.7659  118.8048 O   0  0  0  0  0  0  0  0  0  0  0  0
  1  2  1  0
  2  3  2  3
  2  4  1  0
  3  5  1  0
  1  6  2  0
  5  7  2  3
  7  8  1  0
  7  9  1  0
  4 10  2  0
  9 11  1  0
  9 12  2  0
 11 13  2  3
 13 14  1  0
  6 15  1  0
 10 15  1  0
 11 16  1  0
 12 17  1  0
 14 18  1  0
 10 19  1  0
 16 20  1  0
 17 20  1  0
 20 21  2  0
M  END
$$$$

     RDKit          3D

 22 24  0  0  0  0  0  0  0  0999 V2000
  129.5033  130.0631  122.3637 C   0  0  0  0  0  0  0  0  0  0  0  0
  130.4818  130.6409  121.7849 C   0  0  0  0  0  0  0  0  0  0  0  0
  131.4657  130.0196  121.0409 C   0  0  0  0  0  0  0  0  0  0  0  0
  130.7560  131.9277  122.0848 C   0  0  0  0  0  0  0  0  0  0  0  0
  129.7992  132.7865  122.6588 C   0  0  0  0  0  0  0  0  0  0  0  0
  132.0406  132.5959  121.9262 C   0  0  0  0  0  0  0  0  0  0  0  0
  132.6881  130.5146  120.8877 C   0  0  0  0  0  0  0  0  0  0  0  0
  133.0445  131.5689  121.6836 N   0  0  0  0  0  0  0  0  0  0  0  0
  133.5814  129.9806  120.1015 C   0  0  0  0  0  0  0  0  0  0  0  0
  133.3970  128.9254  119.3640 N   0  0  0  0  0  0  0  0  0  0  0  0
  132.4166  133.9748  122.0984 N   0  0  0  0  0  0  0  0  0  0  0  0
  134.7274  130.6554  120.1351 N   0  0  0  0  0  0  0  0  0  0  0  0
  131.4721  134.7898  122.4722 C   0  0  0  0  0  0  0  0  0  0  0  0
  135.6704  130.4261  119.4933 C   0  0  0  0  0  0  0  0  0  0  0  0
  128.7333  132.5977  123.0747 N   0  0  0  0  0  0  0  0  0  0  0  0
  135.5123  129.2929  118.6760 C   0  0  0  0  0  0  0  0  0  0  0  0
  136.8805  131.0721  119.6474 N   0  0  0  0  0  0  0  0  0  0  0  0
  128.6625  130.8573  123.1148 C   0  0  0  0  0  0  0  0  0  0  0  0
  130.4363  134.0058  122.7302 N   0  0  0  0  0  0  0  0  0  0  0  0
  136.6126  128.7970  117.8539 C   0  0  0  0  0  0  0  0  0  0  0  0
  136.8334  127.4240  117.3437 C   0  0  0  0  0  0  0  0  0  0  0  0
  135.6786  126.7960  116.7086 C   0  0  0  0  0  0  0  0  0  0  0  0
  1  2  1  0
  2  3  2  0
  2  4  1  0
  4  5  2  0
  4  6  1  0
  3  7  1  0
  6  8  1  0
  7  8  1  0
  7  9  2  3
  9 10  1  0
  6 11  2  0
  9 12  1  0
 11 13  1  0
 12 14  1  0
  5 15  1  0
 14 16  2  3
 14 17  1  0
  1 18  2  0
 15 18  1  0
  5 19  1  0
 13 19  2  0
 16 20  1  0
 20 21  1  0
 21 22  1  0
M  END
$$$$

     RDKit          3D

 25 28  0  0  0  0  0  0  0  0999 V2000
  129.5033  130.0631  122.3637 C   0  0  0  0  0  0  0  0  0  0  0  0
  130.4818  130.6409  121.7849 C   0  0  0  0  0  0  0  0  0  0  0  0
  131.4657  130.0196  121.0409 C   0  0  0  0  0  0  0  0  0  0  0  0
  130.7560  131.9277  122.0848 C   0  0  0  0  0  0  0  0  0  0  0  0
  129.7992  132.7865  122.6588 C   0  0  0  0  0  0  0  0  0  0  0  0
  132.0406  132.5959  121.9262 C   0  0  0  0  0  0  0  0  0  0  0  0
  132.6881  130.5146  120.8877 C   0  0  0  0  0  0  0  0  0  0  0  0
  128.3191  130.3730  122.7267 N   0  0  0  0  0  0  0  0  0  0  0  0
  133.0490  131.5034  121.7683 N   0  0  0  0  0  0  0  0  0  0  0  0
  132.2148  133.8442  121.9654 N   0  0  0  0  0  0  0  0  0  0  0  0
  133.5630  129.9214  120.1179 C   0  0  0  0  0  0  0  0  0  0  0  0
  128.9031  132.4204  123.5868 N   0  0  0  0  0  0  0  0  0  0  0  0
  133.3167  128.8377  119.3307 N   0  0  0  0  0  0  0  0  0  0  0  0
  134.7399  130.5129  120.1543 N   0  0  0  0  0  0  0  0  0  0  0  0
  135.5205  130.5338  119.3278 C   0  0  0  0  0  0  0  0  0  0  0  0
  135.1816  129.7711  118.1981 C   0  0  0  0  0  0  0  0  0  0  0  0
  128.1730  131.7542  122.6734 N   0  0  0  0  0  0  0  0  0  0  0  0
  136.7127  131.1902  119.4911 C   0  0  0  0  0  0  0  0  0  0  0  0
  134.2044  128.8235  118.1114 N   0  0  0  0  0  0  0  0  0  0  0  0
  137.6784  131.2596  120.2861 O   0  0  0  0  0  0  0  0  0  0  0  0
  131.3998  134.6295  122.4530 C   0  0  0  0  0  0  0  0  0  0  0  0
  136.9902  131.9565  118.4850 O   0  0  0  0  0  0  0  0  0  0  0  0
  135.9963  130.1062  117.1366 C   0  0  0  0  0  0  0  0  0  0  0  0
  138.5211  130.0953  120.2923 C   0  0  0  0  0  0  0  0  0  0  0  0
  130.1592  134.0777  122.2874 N   0  0  0  0  0  0  0  0  0  0  0  0
  1  2  1  0
  2  3  2  0
  2  4  1  0
  4  5  2  0
  4  6  1  0
  3  7  1  0
  1  8  2  0
  6  9  1  0
  7  9  1  0
  6 10  2  0
  7 11  2  3
  5 12  1  0
 11 13  1  0
 11 14  1  0
 14 15  1  0
 15 16  2  0
  8 17  1  0
 12 17  2  0
 15 18  1  0
 13 19  2  0
 16 19  1  0
 18 20  1  0
 10 21  1  0
 18 22  2  0
 16 23  1  0
 20 24  1  0
  5 25  1  0
 21 25  2  0
M  END
$$$$

     RDKit          3D

 25 28  0  0  0  0  0  0  0  0999 V2000
  129.5033  130.0631  122.3637 C   0  0  0  0  0  0  0  0  0  0  0  0
  130.4818  130.6409  121.7849 C   0  0  0  0  0  0  0  0  0  0  0  0
  131.4657  130.0196  121.0409 C   0  0  0  0  0  0  0  0  0  0  0  0
  130.6676  131.9777  122.0469 C   0  0  0  0  0  0  0  0  0  0  0  0
  132.7176  129.5219  121.4432 C   0  0  0  0  0  0  0  0  0  0  0  0
  133.7278  128.9174  120.8356 C   0  0  0  0  0  0  0  0  0  0  0  0
  134.4301  127.9359  121.0484 N   0  0  0  0  0  0  0  0  0  0  0  0
  134.0713  129.8776  120.0062 C   0  0  0  0  0  0  0  0  0  0  0  0
  135.3547  127.7339  120.0879 C   0  0  0  0  0  0  0  0  0  0  0  0
  133.7727  131.1394  120.0762 C   0  0  0  0  0  0  0  0  0  0  0  0
  135.6673  128.7428  119.2639 C   0  0  0  0  0  0  0  0  0  0  0  0
  131.9436  132.5872  121.9531 C   0  0  0  0  0  0  0  0  0  0  0  0
  136.7647  128.5766  118.5687 C   0  0  0  0  0  0  0  0  0  0  0  0
  129.7774  132.6186  122.3602 N   0  0  0  0  0  0  0  0  0  0  0  0
  135.0088  129.8972  119.0764 C   0  0  0  0  0  0  0  0  0  0  0  0
  128.5128  130.7579  123.0976 N   0  0  0  0  0  0  0  0  0  0  0  0
  136.7690  129.1336  117.2968 C   0  0  0  0  0  0  0  0  0  0  0  0
  135.6078  129.7118  116.7523 C   0  0  0  0  0  0  0  0  0  0  0  0
  133.7778  131.9289  119.0057 N   0  0  0  0  0  0  0  0  0  0  0  0
  135.3264  130.9093  118.1574 C   0  0  0  0  0  0  0  0  0  0  0  0
  133.2677  133.1605  118.8338 C   0  0  0  0  0  0  0  0  0  0  0  0
  132.6806  133.8537  119.8039 N   0  0  0  0  0  0  0  0  0  0  0  0
  132.2971  133.5098  120.9096 C   0  0  0  0  0  0  0  0  0  0  0  0
  133.5416  133.6417  117.5860 N   0  0  0  0  0  0  0  0  0  0  0  0
  128.7125  132.2115  123.0458 N   0  0  0  0  0  0  0  0  0  0  0  0
  1  2  1  0
  2  3  2  0
  2  4  1  0
  3  5  1  0
  5  6  1  0
  6  7  2  0
  6  8  1  0
  7  9  1  0
  8 10  2  0
  9 11  2  0
  4 12  1  0
 11 13  1  0
  4 14  2  0
  8 15  1  0
 11 15  1  0
  1 16  2  0
 13 17  2  0
 17 18  1  0
 10 19  1  0
 15 20  1  0
 18 20  2  0
 19 21  1  0
 21 22  2  0
 12 23  1  0
 22 23  1  0
 21 24  1  0
 14 25  1  0
 16 25  1  0
M  END
$$$$

     RDKit          3D

 25 29  0  0  0  0  0  0  0  0999 V2000
  129.5033  130.0631  122.3637 C   0  0  0  0  0  0  0  0  0  0  0  0
  130.4818  130.6409  121.7849 C   0  0  0  0  0  0  0  0  0  0  0  0
  131.4657  130.0196  121.0409 C   0  0  0  0  0  0  0  0  0  0  0  0
  130.7560  131.9277  122.0848 C   0  0  0  0  0  0  0  0  0  0  0  0
  129.7992  132.7865  122.6588 C   0  0  0  0  0  0  0  0  0  0  0  0
  132.0406  132.5959  121.9262 C   0  0  0  0  0  0  0  0  0  0  0  0
  132.6881  130.5146  120.8877 C   0  0  0  0  0  0  0  0  0  0  0  0
  133.0445  131.5689  121.6836 N   0  0  0  0  0  0  0  0  0  0  0  0
  133.5814  129.9806  120.1015 C   0  0  0  0  0  0  0  0  0  0  0  0
  133.3970  128.9254  119.3640 N   0  0  0  0  0  0  0  0  0  0  0  0
  132.4166  133.9748  122.0984 N   0  0  0  0  0  0  0  0  0  0  0  0
  134.7274  130.6554  120.1351 N   0  0  0  0  0  0  0  0  0  0  0  0
  131.4721  134.7898  122.4722 C   0  0  0  0  0  0  0  0  0  0  0  0
  135.6704  130.4261  119.4933 C   0  0  0  0  0  0  0  0  0  0  0  0
  128.5372  130.8256  123.0267 C   0  0  0  0  0  0  0  0  0  0  0  0
  135.5163  129.2903  118.6684 C   0  0  0  0  0  0  0  0  0  0  0  0
  136.6996  130.9794  119.5408 N   0  0  0  0  0  0  0  0  0  0  0  0
  137.5020  130.6580  118.5446 C   0  0  0  0  0  0  0  0  0  0  0  0
  131.2994  136.0036  122.4576 N   0  0  0  0  0  0  0  0  0  0  0  0
  128.8328  132.1603  122.9804 N   0  0  0  0  0  0  0  0  0  0  0  0
  130.1771  134.0501  122.8472 N   0  0  0  0  0  0  0  0  0  0  0  0
  134.3263  128.4759  118.5741 C   0  0  0  0  0  0  0  0  0  0  0  0
  136.6821  129.1297  117.9350 C   0  0  0  0  0  0  0  0  0  0  0  0
  137.1054  128.4077  117.1845 O   0  0  0  0  0  0  0  0  0  0  0  0
  138.4465  131.2251  118.0746 O   0  0  0  0  0  0  0  0  0  0  0  0
  1  2  1  0
  2  3  2  0
  2  4  1  0
  4  5  2  0
  4  6  1  0
  3  7  1  0
  6  8  1  0
  7  8  1  0
  7  9  2  3
  9 10  1  0
  6 11  2  0
  9 12  1  0
 11 13  1  0
 12 14  1  0
  1 15  2  0
 14 16  2  0
 14 17  1  0
 17 18  1  0
 13 19  1  0
  5 20  1  0
 15 20  1  0
  5 21  1  0
 13 21  2  0
 10 22  2  0
 16 22  1  0
 16 23  1  0
 18 23  1  0
 23 24  2  0
 18 25  2  0
M  END
$$$$

     RDKit          3D

 27 31  0  0  0  0  0  0  0  0999 V2000
  129.5033  130.0631  122.3637 C   0  0  0  0  0  0  0  0  0  0  0  0
  130.4818  130.6409  121.7849 C   0  0  0  0  0  0  0  0  0  0  0  0
  131.4657  130.0196  121.0409 C   0  0  0  0  0  0  0  0  0  0  0  0
  130.6676  131.9777  122.0469 C   0  0  0  0  0  0  0  0  0  0  0  0
  132.7176  129.5219  121.4432 C   0  0  0  0  0  0  0  0  0  0  0  0
  133.7278  128.9174  120.8356 C   0  0  0  0  0  0  0  0  0  0  0  0
  134.4301  127.9359  121.0484 N   0  0  0  0  0  0  0  0  0  0  0  0
  134.0713  129.8776  120.0062 C   0  0  0  0  0  0  0  0  0  0  0  0
  135.3547  127.7339  120.0879 C   0  0  0  0  0  0  0  0  0  0  0  0
  133.7727  131.1394  120.0762 C   0  0  0  0  0  0  0  0  0  0  0  0
  135.6673  128.7428  119.2639 C   0  0  0  0  0  0  0  0  0  0  0  0
  131.9436  132.5872  121.9531 C   0  0  0  0  0  0  0  0  0  0  0  0
  136.7647  128.5766  118.5687 C   0  0  0  0  0  0  0  0  0  0  0  0
  129.7774  132.6186  122.3602 N   0  0  0  0  0  0  0  0  0  0  0  0
  135.0088  129.8972  119.0764 C   0  0  0  0  0  0  0  0  0  0  0  0
  128.5128  130.7579  123.0976 N   0  0  0  0  0  0  0  0  0  0  0  0
  136.7690  129.1336  117.2968 C   0  0  0  0  0  0  0  0  0  0  0  0
  137.7635  127.9029  119.0437 O   0  0  0  0  0  0  0  0  0  0  0  0
  132.2861  133.7736  122.7036 N   0  0  0  0  0  0  0  0  0  0  0  0
  135.1987  130.8157  118.1227 C   0  0  0  0  0  0  0  0  0  0  0  0
  134.2104  132.1044  119.2915 N   0  0  0  0  0  0  0  0  0  0  0  0
  135.6721  129.8836  116.7868 C   0  0  0  0  0  0  0  0  0  0  0  0
  135.0701  131.9035  117.9572 C   0  0  0  0  0  0  0  0  0  0  0  0
  132.7496  131.9858  121.1297 N   0  0  0  0  0  0  0  0  0  0  0  0
  137.6582  128.8563  116.3107 O   0  0  0  0  0  0  0  0  0  0  0  0
  135.3215  132.8275  117.3376 N   0  0  0  0  0  0  0  0  0  0  0  0
  128.7747  132.0870  122.9114 N   0  0  0  0  0  0  0  0  0  0  0  0
  1  2  1  0
  2  3  2  0
  2  4  1  0
  3  5  1  0
  5  6  1  0
  6  7  2  0
  6  8  1  0
  7  9  1  0
  8 10  2  0
  9 11  2  0
  4 12  1  0
 11 13  1  0
  4 14  2  0
  8 15  1  0
 11 15  1  0
  1 16  2  0
 13 17  1  0
 13 18  2  0
 12 19  1  0
 15 20  2  0
 10 21  1  0
 17 22  1  0
 20 22  1  0
 20 23  1  0
 21 23  2  0
 10 24  1  0
 12 24  2  0
 17 25  2  0
 23 26  1  0
 14 27  1  0
 16 27  1  0
M  END
$$$$

     RDKit          3D

 27 31  0  0  0  0  0  0  0  0999 V2000
  129.5033  130.0631  122.3637 C   0  0  0  0  0  0  0  0  0  0  0  0
  130.4818  130.6409  121.7849 C   0  0  0  0  0  0  0  0  0  0  0  0
  131.4657  130.0196  121.0409 C   0  0  0  0  0  0  0  0  0  0  0  0
  130.6676  131.9777  122.0469 C   0  0  0  0  0  0  0  0  0  0  0  0
  132.7176  129.5219  121.4432 C   0  0  0  0  0  0  0  0  0  0  0  0
  133.7278  128.9174  120.8356 C   0  0  0  0  0  0  0  0  0  0  0  0
  134.4301  127.9359  121.0484 N   0  0  0  0  0  0  0  0  0  0  0  0
  134.0713  129.8776  120.0062 C   0  0  0  0  0  0  0  0  0  0  0  0
  135.3547  127.7339  120.0879 C   0  0  0  0  0  0  0  0  0  0  0  0
  133.7727  131.1394  120.0762 C   0  0  0  0  0  0  0  0  0  0  0  0
  135.6673  128.7428  119.2639 C   0  0  0  0  0  0  0  0  0  0  0  0
  131.9436  132.5872  121.9531 C   0  0  0  0  0  0  0  0  0  0  0  0
  136.7647  128.5766  118.5687 C   0  0  0  0  0  0  0  0  0  0  0  0
  129.7774  132.6186  122.3602 N   0  0  0  0  0  0  0  0  0  0  0  0
  135.0088  129.8972  119.0764 C   0  0  0  0  0  0  0  0  0  0  0  0
  128.5128  130.7579  123.0976 N   0  0  0  0  0  0  0  0  0  0  0  0
  136.7690  129.1336  117.2968 C   0  0  0  0  0  0  0  0  0  0  0  0
  137.7635  127.9029  119.0437 O   0  0  0  0  0  0  0  0  0  0  0  0
  132.2861  133.7736  122.7036 N   0  0  0  0  0  0  0  0  0  0  0  0
  135.1987  130.8157  118.1227 C   0  0  0  0  0  0  0  0  0  0  0  0
  134.2104  132.1044  119.2915 N   0  0  0  0  0  0  0  0  0  0  0  0
  135.6721  129.8836  116.7868 C   0  0  0  0  0  0  0  0  0  0  0  0
  135.0701  131.9035  117.9572 C   0  0  0  0  0  0  0  0  0  0  0  0
  132.7496  131.9858  121.1297 N   0  0  0  0  0  0  0  0  0  0  0  0
  137.6582  128.8563  116.3107 O   0  0  0  0  0  0  0  0  0  0  0  0
  135.3215  132.8275  117.3376 N   0  0  0  0  0  0  0  0  0  0  0  0
  128.7747  132.0870  122.9114 C   0  0  0  0  0  0  0  0  0  0  0  0
  1  2  1  0
  2  3  2  0
  2  4  1  0
  3  5  1  0
  5  6  1  0
  6  7  2  0
  6  8  1  0
  7  9  1  0
  8 10  2  0
  9 11  2  0
  4 12  1  0
 11 13  1  0
  4 14  2  0
  8 15  1  0
 11 15  1  0
  1 16  2  0
 13 17  1  0
 13 18  2  0
 12 19  1  0
 15 20  2  0
 10 21  1  0
 17 22  1  0
 20 22  1  0
 20 23  1  0
 21 23  2  0
 10 24  1  0
 12 24  2  0
 17 25  2  0
 23 26  1  0
 14 27  1  0
 16 27  1  0
M  END
$$$$

     RDKit          3D

 28 32  0  0  0  0  0  0  0  0999 V2000
  129.5033  130.0631  122.3637 C   0  0  0  0  0  0  0  0  0  0  0  0
  130.4818  130.6409  121.7849 C   0  0  0  0  0  0  0  0  0  0  0  0
  131.4657  130.0196  121.0409 C   0  0  0  0  0  0  0  0  0  0  0  0
  130.7560  131.9277  122.0848 C   0  0  0  0  0  0  0  0  0  0  0  0
  132.7165  129.5164  121.4272 C   0  0  0  0  0  0  0  0  0  0  0  0
  128.6316  130.6300  123.0265 N   0  0  0  0  0  0  0  0  0  0  0  0
  133.7803  129.1042  120.7206 C   0  0  0  0  0  0  0  0  0  0  0  0
  131.5769  132.8290  121.3895 C   0  0  0  0  0  0  0  0  0  0  0  0
  134.2269  129.7496  119.6644 C   0  0  0  0  0  0  0  0  0  0  0  0
  133.7275  130.9670  119.3511 C   0  0  0  0  0  0  0  0  0  0  0  0
  130.3621  132.5664  123.1502 C   0  0  0  0  0  0  0  0  0  0  0  0
  129.5727  132.1321  124.1609 N   0  0  0  0  0  0  0  0  0  0  0  0
  135.3284  129.1656  119.0818 C   0  0  0  0  0  0  0  0  0  0  0  0
  129.3304  130.8236  124.0338 C   0  0  0  0  0  0  0  0  0  0  0  0
  130.8190  133.8684  123.3717 N   0  0  0  0  0  0  0  0  0  0  0  0
  132.3813  132.5309  120.4639 C   0  0  0  0  0  0  0  0  0  0  0  0
  131.6739  134.1032  121.8493 C   0  0  0  0  0  0  0  0  0  0  0  0
  129.8841  130.1404  125.0654 N   0  0  0  0  0  0  0  0  0  0  0  0
  132.6804  133.4331  119.4338 C   0  0  0  0  0  0  0  0  0  0  0  0
  133.4974  133.2986  118.4029 C   0  0  0  0  0  0  0  0  0  0  0  0
  135.9756  129.7313  118.1379 C   0  0  0  0  0  0  0  0  0  0  0  0
  135.9039  128.0037  119.6284 C   0  0  0  0  0  0  0  0  0  0  0  0
  137.2557  129.5263  117.8461 C   0  0  0  0  0  0  0  0  0  0  0  0
  132.0591  134.5382  119.8244 N   0  0  0  0  0  0  0  0  0  0  0  0
  134.0362  131.6215  118.2488 C   0  0  0  0  0  0  0  0  0  0  0  0
  137.0732  127.5448  119.1516 C   0  0  0  0  0  0  0  0  0  0  0  0
  137.6675  128.3367  118.2475 C   0  0  0  0  0  0  0  0  0  0  0  0
  131.3020  134.5873  120.7391 N   0  0  0  0  0  0  0  0  0  0  0  0
  1  2  1  0
  2  3  2  0
  2  4  1  0
  3  5  1  0
  1  6  2  0
  5  7  2  0
  4  8  1  0
  7  9  1  0
  9 10  2  0
  4 11  2  0
 11 12  1  0
  9 13  1  0
  6 14  1  0
 12 14  2  0
 11 15  1  0
  8 16  1  0
  8 17  2  0
 15 17  1  0
 14 18  1  0
 16 19  2  0
 19 20  1  0
 13 21  2  0
 13 22  1  0
 21 23  1  0
 19 24  1  0
 10 25  1  0
 20 25  2  0
 22 26  2  0
 23 27  2  0
 26 27  1  0
 17 28  1  0
 24 28  1  0
M  END
$$$$

     RDKit          3D

 29 33  0  0  0  0  0  0  0  0999 V2000
  129.5033  130.0631  122.3637 C   0  0  0  0  0  0  0  0  0  0  0  0
  130.4818  130.6409  121.7849 C   0  0  0  0  0  0  0  0  0  0  0  0
  131.4657  130.0196  121.0409 C   0  0  0  0  0  0  0  0  0  0  0  0
  130.7560  131.9277  122.0848 C   0  0  0  0  0  0  0  0  0  0  0  0
  132.7165  129.5164  121.4272 C   0  0  0  0  0  0  0  0  0  0  0  0
  128.6316  130.6300  123.0265 N   0  0  0  0  0  0  0  0  0  0  0  0
  133.7803  129.1042  120.7206 C   0  0  0  0  0  0  0  0  0  0  0  0
  131.5769  132.8290  121.3895 C   0  0  0  0  0  0  0  0  0  0  0  0
  134.2269  129.7496  119.6644 C   0  0  0  0  0  0  0  0  0  0  0  0
  133.7275  130.9670  119.3511 C   0  0  0  0  0  0  0  0  0  0  0  0
  130.3621  132.5664  123.1502 C   0  0  0  0  0  0  0  0  0  0  0  0
  129.5727  132.1321  124.1609 N   0  0  0  0  0  0  0  0  0  0  0  0
  135.3284  129.1656  119.0818 C   0  0  0  0  0  0  0  0  0  0  0  0
  129.3304  130.8236  124.0338 C   0  0  0  0  0  0  0  0  0  0  0  0
  130.8190  133.8684  123.3717 N   0  0  0  0  0  0  0  0  0  0  0  0
  132.3813  132.5309  120.4639 C   0  0  0  0  0  0  0  0  0  0  0  0
  131.6739  134.1032  121.8493 C   0  0  0  0  0  0  0  0  0  0  0  0
  129.8841  130.1404  125.0654 N   0  0  0  0  0  0  0  0  0  0  0  0
  132.6804  133.4331  119.4338 C   0  0  0  0  0  0  0  0  0  0  0  0
  133.4974  133.2986  118.4029 C   0  0  0  0  0  0  0  0  0  0  0  0
  135.9756  129.7313  118.1379 C   0  0  0  0  0  0  0  0  0  0  0  0
  135.9039  128.0037  119.6284 C   0  0  0  0  0  0  0  0  0  0  0  0
  137.2557  129.5263  117.8461 C   0  0  0  0  0  0  0  0  0  0  0  0
  132.0591  134.5382  119.8244 N   0  0  0  0  0  0  0  0  0  0  0  0
  134.0362  131.6215  118.2488 C   0  0  0  0  0  0  0  0  0  0  0  0
  137.7648  128.4165  118.4911 C   0  0  0  0  0  0  0  0  0  0  0  0
  131.3080  134.5858  120.7546 N   0  0  0  0  0  0  0  0  0  0  0  0
  137.0457  127.5892  119.3814 N   0  0  0  0  0  0  0  0  0  0  0  0
  139.1365  128.0449  118.3595 N   0  0  0  0  0  0  0  0  0  0  0  0
  1  2  1  0
  2  3  2  0
  2  4  1  0
  3  5  1  0
  1  6  2  0
  5  7  2  0
  4  8  1  0
  7  9  1  0
  9 10  2  0
  4 11  2  0
 11 12  1  0
  9 13  1  0
  6 14  1  0
 12 14  2  0
 11 15  1  0
  8 16  1  0
  8 17  2  0
 15 17  1  0
 14 18  1  0
 16 19  2  0
 19 20  1  0
 13 21  2  0
 13 22  1  0
 21 23  1  0
 19 24  1  0
 10 25  1  0
 20 25  2  0
 23 26  2  0
 17 27  1  0
 24 27  2  0
 22 28  2  0
 26 28  1  0
 26 29  1  0
M  END
$$$$

     RDKit          3D

 29 33  0  0  0  0  0  0  0  0999 V2000
  129.5033  130.0631  122.3637 C   0  0  0  0  0  0  0  0  0  0  0  0
  130.4818  130.6409  121.7849 C   0  0  0  0  0  0  0  0  0  0  0  0
  131.4657  130.0196  121.0409 C   0  0  0  0  0  0  0  0  0  0  0  0
  130.7560  131.9277  122.0848 C   0  0  0  0  0  0  0  0  0  0  0  0
  132.7165  129.5164  121.4272 C   0  0  0  0  0  0  0  0  0  0  0  0
  128.6316  130.6300  123.0265 N   0  0  0  0  0  0  0  0  0  0  0  0
  133.7803  129.1042  120.7206 C   0  0  0  0  0  0  0  0  0  0  0  0
  131.5769  132.8290  121.3895 C   0  0  0  0  0  0  0  0  0  0  0  0
  134.2269  129.7496  119.6644 C   0  0  0  0  0  0  0  0  0  0  0  0
  133.7275  130.9670  119.3511 C   0  0  0  0  0  0  0  0  0  0  0  0
  130.3621  132.5664  123.1502 C   0  0  0  0  0  0  0  0  0  0  0  0
  129.5727  132.1321  124.1609 N   0  0  0  0  0  0  0  0  0  0  0  0
  135.3284  129.1656  119.0818 C   0  0  0  0  0  0  0  0  0  0  0  0
  129.3304  130.8236  124.0338 C   0  0  0  0  0  0  0  0  0  0  0  0
  130.8190  133.8684  123.3717 N   0  0  0  0  0  0  0  0  0  0  0  0
  132.3813  132.5309  120.4639 C   0  0  0  0  0  0  0  0  0  0  0  0
  131.6739  134.1032  121.8493 C   0  0  0  0  0  0  0  0  0  0  0  0
  129.8841  130.1404  125.0654 N   0  0  0  0  0  0  0  0  0  0  0  0
  132.6804  133.4331  119.4338 C   0  0  0  0  0  0  0  0  0  0  0  0
  133.4974  133.2986  118.4029 C   0  0  0  0  0  0  0  0  0  0  0  0
  135.9756  129.7313  118.1379 C   0  0  0  0  0  0  0  0  0  0  0  0
  135.9039  128.0037  119.6284 C   0  0  0  0  0  0  0  0  0  0  0  0
  137.2557  129.5263  117.8461 C   0  0  0  0  0  0  0  0  0  0  0  0
  132.0591  134.5382  119.8244 N   0  0  0  0  0  0  0  0  0  0  0  0
  134.0362  131.6215  118.2488 C   0  0  0  0  0  0  0  0  0  0  0  0
  137.7648  128.4165  118.4911 C   0  0  0  0  0  0  0  0  0  0  0  0
  131.3080  134.5858  120.7546 N   0  0  0  0  0  0  0  0  0  0  0  0
  137.0457  127.5892  119.3814 N   0  0  0  0  0  0  0  0  0  0  0  0
  139.1365  128.0449  118.3595 C   0  0  0  0  0  0  0  0  0  0  0  0
  1  2  1  0
  2  3  2  0
  2  4  1  0
  3  5  1  0
  1  6  2  0
  5  7  2  0
  4  8  1  0
  7  9  1  0
  9 10  2  0
  4 11  2  0
 11 12  1  0
  9 13  1  0
  6 14  1  0
 12 14  2  0
 11 15  1  0
  8 16  1  0
  8 17  2  0
 15 17  1  0
 14 18  1  0
 16 19  2  0
 19 20  1  0
 13 21  2  0
 13 22  1  0
 21 23  1  0
 19 24  1  0
 10 25  1  0
 20 25  2  0
 23 26  2  0
 17 27  1  0
 24 27  2  0
 22 28  2  0
 26 28  1  0
 26 29  1  0
M  END
$$$$

     RDKit          3D

 30 34  0  0  0  0  0  0  0  0999 V2000
  129.5033  130.0631  122.3637 C   0  0  0  0  0  0  0  0  0  0  0  0
  130.4818  130.6409  121.7849 C   0  0  0  0  0  0  0  0  0  0  0  0
  131.4657  130.0196  121.0409 C   0  0  0  0  0  0  0  0  0  0  0  0
  130.7560  131.9277  122.0848 C   0  0  0  0  0  0  0  0  0  0  0  0
  132.7165  129.5164  121.4272 C   0  0  0  0  0  0  0  0  0  0  0  0
  128.6316  130.6300  123.0265 N   0  0  0  0  0  0  0  0  0  0  0  0
  133.7803  129.1042  120.7206 C   0  0  0  0  0  0  0  0  0  0  0  0
  131.5769  132.8290  121.3895 C   0  0  0  0  0  0  0  0  0  0  0  0
  134.2269  129.7496  119.6644 C   0  0  0  0  0  0  0  0  0  0  0  0
  133.7275  130.9670  119.3511 C   0  0  0  0  0  0  0  0  0  0  0  0
  130.3621  132.5664  123.1502 C   0  0  0  0  0  0  0  0  0  0  0  0
  129.5727  132.1321  124.1609 N   0  0  0  0  0  0  0  0  0  0  0  0
  135.3284  129.1656  119.0818 C   0  0  0  0  0  0  0  0  0  0  0  0
  129.3304  130.8236  124.0338 C   0  0  0  0  0  0  0  0  0  0  0  0
  130.8190  133.8684  123.3717 N   0  0  0  0  0  0  0  0  0  0  0  0
  132.3813  132.5309  120.4639 C   0  0  0  0  0  0  0  0  0  0  0  0
  131.6739  134.1032  121.8493 C   0  0  0  0  0  0  0  0  0  0  0  0
  129.8841  130.1404  125.0654 N   0  0  0  0  0  0  0  0  0  0  0  0
  132.6804  133.4331  119.4338 C   0  0  0  0  0  0  0  0  0  0  0  0
  133.4974  133.2986  118.4029 C   0  0  0  0  0  0  0  0  0  0  0  0
  135.9756  129.7313  118.1379 C   0  0  0  0  0  0  0  0  0  0  0  0
  135.9039  128.0037  119.6284 C   0  0  0  0  0  0  0  0  0  0  0  0
  137.2557  129.5263  117.8461 C   0  0  0  0  0  0  0  0  0  0  0  0
  132.0591  134.5382  119.8244 N   0  0  0  0  0  0  0  0  0  0  0  0
  134.0362  131.6215  118.2488 C   0  0  0  0  0  0  0  0  0  0  0  0
  137.0732  127.5448  119.1516 C   0  0  0  0  0  0  0  0  0  0  0  0
  137.9583  130.4262  117.1787 O   0  0  0  0  0  0  0  0  0  0  0  0
  131.2960  134.5874  120.7421 N   0  0  0  0  0  0  0  0  0  0  0  0
  137.6398  128.2866  118.2050 C   0  0  0  0  0  0  0  0  0  0  0  0
  137.2968  131.5498  116.6351 C   0  0  0  0  0  0  0  0  0  0  0  0
  1  2  1  0
  2  3  2  0
  2  4  1  0
  3  5  1  0
  1  6  2  0
  5  7  2  0
  4  8  1  0
  7  9  1  0
  9 10  2  0
  4 11  2  0
 11 12  1  0
  9 13  1  0
  6 14  1  0
 12 14  2  0
 11 15  1  0
  8 16  1  0
  8 17  2  0
 15 17  1  0
 14 18  1  0
 16 19  2  0
 19 20  1  0
 13 21  2  0
 13 22  1  0
 21 23  1  0
 19 24  1  0
 10 25  1  0
 20 25  2  0
 22 26  2  0
 23 27  1  0
 17 28  1  0
 24 28  1  0
 23 29  2  0
 26 29  1  0
 27 30  1  0
M  END
$$$$

     RDKit          3D

 31 35  0  0  0  0  0  0  0  0999 V2000
  129.5033  130.0631  122.3637 C   0  0  0  0  0  0  0  0  0  0  0  0
  130.4818  130.6409  121.7849 C   0  0  0  0  0  0  0  0  0  0  0  0
  131.4657  130.0196  121.0409 C   0  0  0  0  0  0  0  0  0  0  0  0
  130.7560  131.9277  122.0848 C   0  0  0  0  0  0  0  0  0  0  0  0
  132.7165  129.5164  121.4272 C   0  0  0  0  0  0  0  0  0  0  0  0
  128.6316  130.6300  123.0265 N   0  0  0  0  0  0  0  0  0  0  0  0
  133.7803  129.1042  120.7206 C   0  0  0  0  0  0  0  0  0  0  0  0
  131.5769  132.8290  121.3895 C   0  0  0  0  0  0  0  0  0  0  0  0
  134.2269  129.7496  119.6644 C   0  0  0  0  0  0  0  0  0  0  0  0
  133.7275  130.9670  119.3511 C   0  0  0  0  0  0  0  0  0  0  0  0
  130.3621  132.5664  123.1502 C   0  0  0  0  0  0  0  0  0  0  0  0
  129.5727  132.1321  124.1609 N   0  0  0  0  0  0  0  0  0  0  0  0
  135.3284  129.1656  119.0818 C   0  0  0  0  0  0  0  0  0  0  0  0
  129.3304  130.8236  124.0338 C   0  0  0  0  0  0  0  0  0  0  0  0
  130.8190  133.8684  123.3717 N   0  0  0  0  0  0  0  0  0  0  0  0
  132.3813  132.5309  120.4639 C   0  0  0  0  0  0  0  0  0  0  0  0
  131.6739  134.1032  121.8493 C   0  0  0  0  0  0  0  0  0  0  0  0
  129.8841  130.1404  125.0654 N   0  0  0  0  0  0  0  0  0  0  0  0
  132.6804  133.4331  119.4338 C   0  0  0  0  0  0  0  0  0  0  0  0
  133.4974  133.2986  118.4029 C   0  0  0  0  0  0  0  0  0  0  0  0
  135.9756  129.7313  118.1379 C   0  0  0  0  0  0  0  0  0  0  0  0
  135.9039  128.0037  119.6284 C   0  0  0  0  0  0  0  0  0  0  0  0
  137.2557  129.5263  117.8461 C   0  0  0  0  0  0  0  0  0  0  0  0
  137.9112  130.2500  116.9643 O   0  0  0  0  0  0  0  0  0  0  0  0
  132.0512  134.5329  119.8259 N   0  0  0  0  0  0  0  0  0  0  0  0
  131.3813  134.6398  120.8402 N   0  0  0  0  0  0  0  0  0  0  0  0
  137.7456  128.5628  118.5727 C   0  0  0  0  0  0  0  0  0  0  0  0
  139.1050  128.1836  118.4501 O   0  0  0  0  0  0  0  0  0  0  0  0
  137.0322  127.9495  119.6007 N   0  0  0  0  0  0  0  0  0  0  0  0
  134.1011  132.6716  117.8796 N   0  0  0  0  0  0  0  0  0  0  0  0
  134.0009  131.4539  118.0613 C   0  0  0  0  0  0  0  0  0  0  0  0
  1  2  1  0
  2  3  2  0
  2  4  1  0
  3  5  1  0
  1  6  2  0
  5  7  2  0
  4  8  1  0
  7  9  1  0
  9 10  2  0
  4 11  2  0
 11 12  1  0
  9 13  1  0
  6 14  1  0
 12 14  2  0
 11 15  1  0
  8 16  1  0
  8 17  2  0
 15 17  1  0
 14 18  1  0
 16 19  2  0
 19 20  1  0
 13 21  2  0
 13 22  1  0
 21 23  1  0
 23 24  1  0
 19 25  1  0
 17 26  1  0
 25 26  2  0
 23 27  2  0
 27 28  1  0
 22 29  2  0
 27 29  1  0
 20 30  2  0
 10 31  1  0
 30 31  1  0
M  END
$$$$
