
     RDKit          3D

  9  9  0  0  0  0  0  0  0  0999 V2000
  140.8778  150.5419  139.7337 Cl  0  0  0  0  0  0  0  0  0  0  0  0
  138.9614  150.5329  140.4448 C   0  0  0  0  0  0  0  0  0  0  0  0
  138.2154  149.5089  139.9489 C   0  0  0  0  0  0  0  0  0  0  0  0
  138.9058  151.3604  141.4410 C   0  0  0  0  0  0  0  0  0  0  0  0
  138.1488  150.9324  142.3523 C   0  0  0  0  0  0  0  0  0  0  0  0
  137.1148  149.3324  140.7768 C   0  0  0  0  0  0  0  0  0  0  0  0
  136.0136  148.5090  140.4836 C   0  0  0  0  0  0  0  0  0  0  0  0
  137.0579  150.0152  142.0760 C   0  0  0  0  0  0  0  0  0  0  0  0
  137.8285  151.7971  143.7480 C   0  0  0  0  0  0  0  0  0  0  0  0
  1  2  1  0
  2  3  1  0
  2  4  2  0
  4  5  1  0
  3  6  2  0
  6  7  1  0
  5  8  2  0
  6  8  1  0
  5  9  1  0
M  END
$$$$

     RDKit          3D

  9  9  0  0  0  0  0  0  0  0999 V2000
  139.2623  151.0928  142.4045 C   0  0  0  0  0  0  0  0  0  0  0  0
  138.8616  152.1314  142.9035 C   0  0  0  0  0  0  0  0  0  0  0  0
  137.7829  151.8931  143.8930 C   0  0  0  0  0  0  0  0  0  0  0  0
  140.0683  150.9662  141.1540 C   0  0  0  0  0  0  0  0  0  0  0  0
  139.7970  150.5484  140.1018 C   0  0  0  0  0  0  0  0  0  0  0  0
  137.3714  150.5055  143.9905 C   0  0  0  0  0  0  0  0  0  0  0  0
  140.5294  150.5935  138.8561 C   0  0  0  0  0  0  0  0  0  0  0  0
  136.3579  150.2954  144.9989 C   0  0  0  0  0  0  0  0  0  0  0  0
  138.0568  149.9095  143.0997 C   0  0  0  0  0  0  0  0  0  0  0  0
  1  2  1  0
  2  3  2  0
  1  4  1  0
  4  5  2  3
  3  6  1  0
  5  7  1  0
  6  8  1  0
  1  9  1  0
  6  9  2  0
M  END
$$$$

     RDKit          3D

  9  9  0  0  0  0  0  0  0  0999 V2000
  139.3433  149.9930  140.5896 C   0  0  0  0  0  0  0  0  0  0  0  0
  138.9754  149.9376  139.3599 C   0  0  0  0  0  0  0  0  0  0  0  0
  138.5874  150.0785  141.6373 C   0  0  0  0  0  0  0  0  0  0  0  0
  137.6056  149.8677  139.0277 C   0  0  0  0  0  0  0  0  0  0  0  0
  137.1679  149.5005  137.7644 O   0  0  0  0  0  0  0  0  0  0  0  0
  136.6959  149.8144  140.1356 C   0  0  0  0  0  0  0  0  0  0  0  0
  135.2738  149.8221  139.9808 C   0  0  0  0  0  0  0  0  0  0  0  0
  139.1560  150.2822  143.0507 C   0  0  0  0  0  0  0  0  0  0  0  0
  137.1697  149.9881  141.5281 C   0  0  0  0  0  0  0  0  0  0  0  0
  1  2  2  0
  1  3  1  0
  2  4  1  0
  4  5  1  0
  4  6  2  0
  6  7  1  0
  3  8  1  0
  3  9  2  0
  6  9  1  0
M  END
$$$$

     RDKit          3D

  9  9  0  0  0  0  0  0  0  0999 V2000
  139.2623  151.0928  142.4045 C   0  0  0  0  0  0  0  0  0  0  0  0
  138.8616  152.1314  142.9035 C   0  0  0  0  0  0  0  0  0  0  0  0
  137.7829  151.8931  143.8930 C   0  0  0  0  0  0  0  0  0  0  0  0
  140.0683  150.9662  141.1540 C   0  0  0  0  0  0  0  0  0  0  0  0
  139.7970  150.5484  140.1018 C   0  0  0  0  0  0  0  0  0  0  0  0
  137.3714  150.5055  143.9905 C   0  0  0  0  0  0  0  0  0  0  0  0
  140.5294  150.5935  138.8561 C   0  0  0  0  0  0  0  0  0  0  0  0
  138.0217  149.5348  143.2661 C   0  0  0  0  0  0  0  0  0  0  0  0
  138.8257  149.7385  142.5193 C   0  0  0  0  0  0  0  0  0  0  0  0
  1  2  1  0
  2  3  2  0
  1  4  1  0
  4  5  2  3
  3  6  1  0
  5  7  1  0
  6  8  2  0
  1  9  2  0
  8  9  1  0
M  END
$$$$

     RDKit          3D

  9  9  0  0  0  0  0  0  0  0999 V2000
  140.8778  150.5419  139.7337 Cl  0  0  0  0  0  0  0  0  0  0  0  0
  138.9614  150.5329  140.4448 C   0  0  0  0  0  0  0  0  0  0  0  0
  138.2154  149.5089  139.9489 C   0  0  0  0  0  0  0  0  0  0  0  0
  138.9058  151.3604  141.4410 C   0  0  0  0  0  0  0  0  0  0  0  0
  137.7037  151.1653  142.2004 C   0  0  0  0  0  0  0  0  0  0  0  0
  136.9567  150.3822  142.0708 C   0  0  0  0  0  0  0  0  0  0  0  0
  138.3209  148.8330  138.7828 C   0  0  0  0  0  0  0  0  0  0  0  0
  135.6902  150.2187  142.9473 C   0  0  0  0  0  0  0  0  0  0  0  0
  136.8759  149.4468  140.7802 C   0  0  0  0  0  0  0  0  0  0  0  0
  1  2  1  0
  2  3  1  0
  2  4  2  0
  4  5  1  0
  5  6  2  0
  3  7  1  0
  6  8  1  0
  3  9  2  0
  6  9  1  0
M  END
$$$$

     RDKit          3D

  9  8  0  0  0  0  0  0  0  0999 V2000
  138.7247  151.5764  143.3183 C   0  0  0  0  0  0  0  0  0  0  0  0
  137.9184  152.3259  143.7535 C   0  0  0  0  0  0  0  0  0  0  0  0
  136.7531  151.7836  144.4567 C   0  0  0  0  0  0  0  0  0  0  0  0
  138.5775  150.7791  142.3582 C   0  0  0  0  0  0  0  0  0  0  0  0
  139.4311  150.3909  141.2529 C   0  0  0  0  0  0  0  0  0  0  0  0
  136.5869  150.4044  144.4442 C   0  0  0  0  0  0  0  0  0  0  0  0
  140.6895  150.5480  141.0923 O   0  0  0  0  0  0  0  0  0  0  0  0
  135.7937  152.6292  145.2833 C   0  0  0  0  0  0  0  0  0  0  0  0
  138.8773  149.9614  140.0530 O   0  0  0  0  0  0  0  0  0  0  0  0
  1  2  1  0
  2  3  2  3
  1  4  2  3
  4  5  1  0
  3  6  1  0
  5  7  2  0
  3  8  1  0
  5  9  1  0
M  END
$$$$

     RDKit          3D

  9  9  0  0  0  0  0  0  0  0999 V2000
  140.8778  150.5419  139.7337 Cl  0  0  0  0  0  0  0  0  0  0  0  0
  138.9614  150.5329  140.4448 C   0  0  0  0  0  0  0  0  0  0  0  0
  138.2154  149.5089  139.9489 C   0  0  0  0  0  0  0  0  0  0  0  0
  139.1215  151.1800  141.6231 C   0  0  0  0  0  0  0  0  0  0  0  0
  138.0837  150.9004  142.5999 C   0  0  0  0  0  0  0  0  0  0  0  0
  137.1000  149.9215  142.1731 C   0  0  0  0  0  0  0  0  0  0  0  0
  135.9904  149.8133  143.1128 C   0  0  0  0  0  0  0  0  0  0  0  0
  137.0390  149.3832  140.8312 C   0  0  0  0  0  0  0  0  0  0  0  0
  138.1820  151.5491  143.9142 C   0  0  0  0  0  0  0  0  0  0  0  0
  1  2  1  0
  2  3  2  0
  2  4  1  0
  4  5  2  0
  5  6  1  0
  6  7  1  0
  3  8  1  0
  6  8  2  0
  5  9  1  0
M  END
$$$$

     RDKit          3D

  9  9  0  0  0  0  0  0  0  0999 V2000
  139.3433  149.9930  140.5896 C   0  0  0  0  0  0  0  0  0  0  0  0
  138.9754  149.9376  139.3599 C   0  0  0  0  0  0  0  0  0  0  0  0
  138.5874  150.0785  141.6373 C   0  0  0  0  0  0  0  0  0  0  0  0
  137.2141  149.9040  141.8313 C   0  0  0  0  0  0  0  0  0  0  0  0
  136.4597  150.2467  142.9686 C   0  0  0  0  0  0  0  0  0  0  0  0
  135.1343  150.3946  143.2569 C   0  0  0  0  0  0  0  0  0  0  0  0
  137.6270  150.3922  143.9380 C   0  0  0  0  0  0  0  0  0  0  0  0
  138.8796  150.3493  142.9503 C   0  0  0  0  0  0  0  0  0  0  0  0
  137.8284  150.7103  145.1466 C   0  0  0  0  0  0  0  0  0  0  0  0
  1  2  2  0
  1  3  1  0
  3  4  1  0
  4  5  2  0
  5  6  1  0
  5  7  1  0
  3  8  2  0
  7  8  1  0
  7  9  2  0
M  END
$$$$

     RDKit          3D

  9  8  0  0  0  0  0  0  0  0999 V2000
  139.2623  151.0928  142.4045 C   0  0  0  0  0  0  0  0  0  0  0  0
  138.8616  152.1314  142.9035 C   0  0  0  0  0  0  0  0  0  0  0  0
  137.7829  151.8931  143.8930 C   0  0  0  0  0  0  0  0  0  0  0  0
  140.0683  150.9662  141.1540 C   0  0  0  0  0  0  0  0  0  0  0  0
  139.9042  149.9108  140.2223 C   0  0  0  0  0  0  0  0  0  0  0  0
  137.4088  152.4027  144.9124 C   0  0  0  0  0  0  0  0  0  0  0  0
  140.1520  150.2887  138.9083 C   0  0  0  0  0  0  0  0  0  0  0  0
  136.0566  152.4809  145.4402 C   0  0  0  0  0  0  0  0  0  0  0  0
  135.4615  151.5698  146.0254 C   0  0  0  0  0  0  0  0  0  0  0  0
  1  2  1  0
  2  3  2  3
  1  4  1  0
  4  5  1  0
  3  6  1  0
  5  7  1  0
  6  8  1  0
  8  9  2  0
M  END
$$$$

     RDKit          3D

  9  9  0  0  0  0  0  0  0  0999 V2000
  139.3433  149.9930  140.5896 C   0  0  0  0  0  0  0  0  0  0  0  0
  138.9754  149.9376  139.3599 C   0  0  0  0  0  0  0  0  0  0  0  0
  138.5874  150.0785  141.6373 C   0  0  0  0  0  0  0  0  0  0  0  0
  137.6056  149.8677  139.0277 C   0  0  0  0  0  0  0  0  0  0  0  0
  137.1679  149.5005  137.7644 C   0  0  0  0  0  0  0  0  0  0  0  0
  136.7589  149.8820  140.2748 C   0  0  0  0  0  0  0  0  0  0  0  0
  139.0910  150.2701  143.0611 C   0  0  0  0  0  0  0  0  0  0  0  0
  135.2881  149.9395  140.0767 C   0  0  0  0  0  0  0  0  0  0  0  0
  137.1671  150.0199  141.5980 C   0  0  0  0  0  0  0  0  0  0  0  0
  1  2  2  0
  1  3  1  0
  2  4  1  0
  4  5  1  0
  4  6  2  0
  3  7  1  0
  6  8  1  0
  3  9  2  0
  6  9  1  0
M  END
$$$$

     RDKit          3D

  9  9  0  0  0  0  0  0  0  0999 V2000
  139.5354  150.8919  142.2313 C   0  0  0  0  0  0  0  0  0  0  0  0
  139.0141  150.3968  141.0590 C   0  0  0  0  0  0  0  0  0  0  0  0
  138.6982  150.9504  143.4037 C   0  0  0  0  0  0  0  0  0  0  0  0
  137.7122  149.9430  141.0471 C   0  0  0  0  0  0  0  0  0  0  0  0
  136.8205  150.0007  142.1552 C   0  0  0  0  0  0  0  0  0  0  0  0
  137.3441  150.5817  143.3573 C   0  0  0  0  0  0  0  0  0  0  0  0
  139.9190  150.3833  139.7463 C   0  0  0  0  0  0  0  0  0  0  0  0
  141.2759  150.3991  139.9556 C   0  0  0  0  0  0  0  0  0  0  0  0
  139.3968  150.3433  138.9322 O   0  0  0  0  0  0  0  0  0  0  0  0
  1  2  2  0
  1  3  1  0
  2  4  1  0
  4  5  2  0
  3  6  2  0
  5  6  1  0
  2  7  1  0
  7  8  1  0
  7  9  2  0
M  END
$$$$

     RDKit          3D

  9  9  0  0  0  0  0  0  0  0999 V2000
  139.2623  151.0928  142.4045 C   0  0  0  0  0  0  0  0  0  0  0  0
  138.8616  152.1314  142.9035 C   0  0  0  0  0  0  0  0  0  0  0  0
  137.7829  151.8931  143.8930 C   0  0  0  0  0  0  0  0  0  0  0  0
  137.3593  150.5405  144.0611 C   0  0  0  0  0  0  0  0  0  0  0  0
  136.3238  150.4657  145.1214 C   0  0  0  0  0  0  0  0  0  0  0  0
  139.7279  151.0842  140.8951 C   0  0  0  0  0  0  0  0  0  0  0  0
  135.7754  151.4815  145.5058 C   0  0  0  0  0  0  0  0  0  0  0  0
  137.0413  152.8131  144.6677 C   0  0  0  0  0  0  0  0  0  0  0  0
  136.1128  152.6926  145.4936 C   0  0  0  0  0  0  0  0  0  0  0  0
  1  2  1  0
  2  3  2  3
  3  4  1  0
  4  5  2  0
  1  6  1  0
  5  7  1  0
  3  8  1  0
  7  9  2  0
  8  9  2  0
M  END
$$$$

     RDKit          3D

  9  9  0  0  0  0  0  0  0  0999 V2000
  140.8778  150.5419  139.7337 Cl  0  0  0  0  0  0  0  0  0  0  0  0
  138.9614  150.5329  140.4448 C   0  0  0  0  0  0  0  0  0  0  0  0
  138.2154  149.5089  139.9489 C   0  0  0  0  0  0  0  0  0  0  0  0
  138.7771  151.4412  141.4365 C   0  0  0  0  0  0  0  0  0  0  0  0
  137.6505  151.2689  142.2281 C   0  0  0  0  0  0  0  0  0  0  0  0
  138.3890  148.8791  138.6827 C   0  0  0  0  0  0  0  0  0  0  0  0
  136.7544  150.1973  141.8645 C   0  0  0  0  0  0  0  0  0  0  0  0
  136.8256  149.4747  140.7206 C   0  0  0  0  0  0  0  0  0  0  0  0
  137.3864  152.1296  143.5941 Cl  0  0  0  0  0  0  0  0  0  0  0  0
  1  2  1  0
  2  3  2  0
  2  4  1  0
  4  5  2  0
  3  6  1  0
  5  7  1  0
  3  8  1  0
  7  8  2  0
  5  9  1  0
M  END
$$$$

     RDKit          3D

  9  9  0  0  0  0  0  0  0  0999 V2000
  138.9699  151.3138  142.5680 C   0  0  0  0  0  0  0  0  0  0  0  0
  138.6028  152.0884  143.2652 C   0  0  0  0  0  0  0  0  0  0  0  0
  137.6377  151.6909  144.0815 C   0  0  0  0  0  0  0  0  0  0  0  0
  137.2743  150.3458  144.1256 C   0  0  0  0  0  0  0  0  0  0  0  0
  136.9913  152.5214  145.1993 C   0  0  0  0  0  0  0  0  0  0  0  0
  138.5410  149.9275  142.4151 C   0  0  0  0  0  0  0  0  0  0  0  0
  137.1792  153.7679  145.1649 C   0  0  0  0  0  0  0  0  0  0  0  0
  137.7753  149.4377  143.3406 C   0  0  0  0  0  0  0  0  0  0  0  0
  135.7573  152.0402  145.4588 C   0  0  0  0  0  0  0  0  0  0  0  0
  1  2  1  0
  2  3  2  0
  3  4  1  0
  3  5  1  0
  1  6  2  0
  5  7  1  0
  4  8  2  0
  6  8  1  0
  5  9  1  0
M  END
$$$$

     RDKit          3D

  9  9  0  0  0  0  0  0  0  0999 V2000
  140.8778  150.5419  139.7337 Cl  0  0  0  0  0  0  0  0  0  0  0  0
  138.9614  150.5329  140.4448 C   0  0  0  0  0  0  0  0  0  0  0  0
  138.2154  149.5089  139.9489 C   0  0  0  0  0  0  0  0  0  0  0  0
  138.7771  151.4412  141.4365 C   0  0  0  0  0  0  0  0  0  0  0  0
  138.2382  151.0313  142.4050 C   0  0  0  0  0  0  0  0  0  0  0  0
  138.2717  151.6474  143.8330 C   0  0  0  0  0  0  0  0  0  0  0  0
  137.3715  149.7747  142.2685 C   0  0  0  0  0  0  0  0  0  0  0  0
  138.1054  148.9617  138.7663 C   0  0  0  0  0  0  0  0  0  0  0  0
  137.1577  149.1691  141.0177 C   0  0  0  0  0  0  0  0  0  0  0  0
  1  2  1  0
  2  3  2  0
  2  4  1  0
  4  5  2  0
  5  6  1  0
  5  7  1  0
  3  8  1  0
  3  9  1  0
  7  9  2  0
M  END
$$$$

     RDKit          3D

  9 10  0  0  0  0  0  0  0  0999 V2000
  138.7092  151.1474  142.6270 C   0  0  0  0  0  0  0  0  0  0  0  0
  138.5252  151.9373  143.5111 C   0  0  0  0  0  0  0  0  0  0  0  0
  137.3915  151.8078  144.0743 C   0  0  0  0  0  0  0  0  0  0  0  0
  136.5965  150.6177  143.9727 C   0  0  0  0  0  0  0  0  0  0  0  0
  137.9815  149.9616  142.2553 C   0  0  0  0  0  0  0  0  0  0  0  0
  136.5073  152.7483  145.0882 C   0  0  0  0  0  0  0  0  0  0  0  0
  135.4854  150.3736  144.8379 C   0  0  0  0  0  0  0  0  0  0  0  0
  136.9900  149.8002  142.9719 C   0  0  0  0  0  0  0  0  0  0  0  0
  135.1995  151.5891  145.5255 C   0  0  0  0  0  0  0  0  0  0  0  0
  1  2  1  0
  2  3  2  0
  3  4  1  0
  1  5  2  0
  3  6  1  0
  4  7  1  0
  4  8  2  0
  5  8  1  0
  6  9  1  0
  7  9  2  0
M  END
$$$$

     RDKit          3D

  9  8  0  0  0  0  0  0  0  0999 V2000
  138.7092  151.1474  142.6270 C   0  0  0  0  0  0  0  0  0  0  0  0
  138.5252  151.9373  143.5111 C   0  0  0  0  0  0  0  0  0  0  0  0
  137.3814  151.6573  144.3961 C   0  0  0  0  0  0  0  0  0  0  0  0
  136.7840  152.7103  145.2476 C   0  0  0  0  0  0  0  0  0  0  0  0
  139.0383  151.5321  141.1683 C   0  0  0  0  0  0  0  0  0  0  0  0
  139.6348  150.5614  140.4492 C   0  0  0  0  0  0  0  0  0  0  0  0
  137.1621  153.9300  145.1016 C   0  0  0  0  0  0  0  0  0  0  0  0
  135.5116  152.3819  145.4419 C   0  0  0  0  0  0  0  0  0  0  0  0
  139.9259  150.7558  139.1057 C   0  0  0  0  0  0  0  0  0  0  0  0
  1  2  1  0
  2  3  2  3
  3  4  1  0
  1  5  1  0
  5  6  1  0
  4  7  1  0
  4  8  1  0
  6  9  1  0
M  END
$$$$

     RDKit          3D

  9  9  0  0  0  0  0  0  0  0999 V2000
  138.9699  151.3138  142.5680 C   0  0  0  0  0  0  0  0  0  0  0  0
  138.6028  152.0884  143.2652 C   0  0  0  0  0  0  0  0  0  0  0  0
  137.4868  151.7382  144.1979 C   0  0  0  0  0  0  0  0  0  0  0  0
  139.9964  151.3955  141.4280 C   0  0  0  0  0  0  0  0  0  0  0  0
  138.3631  149.9235  142.4596 C   0  0  0  0  0  0  0  0  0  0  0  0
  137.0530  150.4422  144.0790 C   0  0  0  0  0  0  0  0  0  0  0  0
  137.4953  149.5561  143.3655 C   0  0  0  0  0  0  0  0  0  0  0  0
  139.7537  150.8795  140.2562 C   0  0  0  0  0  0  0  0  0  0  0  0
  136.8783  152.8532  145.2263 C   0  0  0  0  0  0  0  0  0  0  0  0
  1  2  1  0
  2  3  2  0
  1  4  1  0
  1  5  2  0
  3  6  1  0
  5  7  1  0
  6  7  2  0
  4  8  1  0
  3  9  1  0
M  END
$$$$

     RDKit          3D

  9  9  0  0  0  0  0  0  0  0999 V2000
  139.2623  151.0928  142.4045 C   0  0  0  0  0  0  0  0  0  0  0  0
  138.8616  152.1314  142.9035 C   0  0  0  0  0  0  0  0  0  0  0  0
  137.9123  151.7989  143.7814 C   0  0  0  0  0  0  0  0  0  0  0  0
  138.7650  149.7966  142.5256 C   0  0  0  0  0  0  0  0  0  0  0  0
  137.2962  152.8725  144.6390 C   0  0  0  0  0  0  0  0  0  0  0  0
  136.0124  152.6572  145.2582 C   0  0  0  0  0  0  0  0  0  0  0  0
  135.4438  151.4024  145.0722 C   0  0  0  0  0  0  0  0  0  0  0  0
  137.4874  150.3773  143.7825 C   0  0  0  0  0  0  0  0  0  0  0  0
  135.4360  153.7050  145.9405 C   0  0  0  0  0  0  0  0  0  0  0  0
  1  2  1  0
  2  3  2  0
  1  4  2  0
  3  5  1  0
  5  6  2  3
  6  7  1  0
  3  8  1  0
  4  8  1  0
  6  9  1  0
M  END
$$$$

     RDKit          3D

  9  9  0  0  0  0  0  0  0  0999 V2000
  139.2623  151.0928  142.4045 C   0  0  0  0  0  0  0  0  0  0  0  0
  138.8616  152.1314  142.9035 C   0  0  0  0  0  0  0  0  0  0  0  0
  137.7829  151.8931  143.8930 C   0  0  0  0  0  0  0  0  0  0  0  0
  138.7753  150.3081  141.6756 C   0  0  0  0  0  0  0  0  0  0  0  0
  137.2563  150.5222  143.8248 C   0  0  0  0  0  0  0  0  0  0  0  0
  139.2493  149.6675  140.4594 C   0  0  0  0  0  0  0  0  0  0  0  0
  140.2995  149.8202  139.8905 C   0  0  0  0  0  0  0  0  0  0  0  0
  140.5448  149.8443  138.4803 C   0  0  0  0  0  0  0  0  0  0  0  0
  137.5056  149.7369  142.4466 C   0  0  0  0  0  0  0  0  0  0  0  0
  1  2  1  0
  2  3  2  0
  1  4  2  0
  3  5  1  0
  4  6  1  0
  6  7  1  0
  7  8  2  0
  4  9  1  0
  5  9  2  0
M  END
$$$$

     RDKit          3D

  9  9  0  0  0  0  0  0  0  0999 V2000
  138.9699  151.3138  142.5680 C   0  0  0  0  0  0  0  0  0  0  0  0
  138.6028  152.0884  143.2652 C   0  0  0  0  0  0  0  0  0  0  0  0
  137.4868  151.7382  144.1979 C   0  0  0  0  0  0  0  0  0  0  0  0
  139.9964  151.3955  141.4280 C   0  0  0  0  0  0  0  0  0  0  0  0
  139.7128  150.7435  140.2231 C   0  0  0  0  0  0  0  0  0  0  0  0
  138.1655  149.9543  142.6676 C   0  0  0  0  0  0  0  0  0  0  0  0
  137.0411  152.7198  145.1838 C   0  0  0  0  0  0  0  0  0  0  0  0
  140.4428  150.6210  139.3199 C   0  0  0  0  0  0  0  0  0  0  0  0
  137.0960  150.4307  143.9253 C   0  0  0  0  0  0  0  0  0  0  0  0
  1  2  1  0
  2  3  2  0
  1  4  1  0
  4  5  2  3
  1  6  2  0
  3  7  1  0
  5  8  1  0
  3  9  1  0
  6  9  1  0
M  END
$$$$

     RDKit          3D

  9  9  0  0  0  0  0  0  0  0999 V2000
  139.2623  151.0928  142.4045 C   0  0  0  0  0  0  0  0  0  0  0  0
  138.8616  152.1314  142.9035 C   0  0  0  0  0  0  0  0  0  0  0  0
  137.7829  151.8931  143.8930 C   0  0  0  0  0  0  0  0  0  0  0  0
  137.3593  150.5405  144.0611 C   0  0  0  0  0  0  0  0  0  0  0  0
  136.3238  150.4657  145.1214 C   0  0  0  0  0  0  0  0  0  0  0  0
  139.7279  151.0842  140.8951 C   0  0  0  0  0  0  0  0  0  0  0  0
  135.7754  151.4815  145.5058 C   0  0  0  0  0  0  0  0  0  0  0  0
  135.4405  152.6190  144.9118 C   0  0  0  0  0  0  0  0  0  0  0  0
  136.9788  152.9758  144.2470 C   0  0  0  0  0  0  0  0  0  0  0  0
  1  2  1  0
  2  3  2  3
  3  4  1  0
  4  5  2  0
  1  6  1  0
  5  7  1  0
  7  8  2  0
  3  9  1  0
  8  9  1  0
M  END
$$$$

     RDKit          3D

  9  9  0  0  0  0  0  0  0  0999 V2000
  138.9699  151.3138  142.5680 C   0  0  0  0  0  0  0  0  0  0  0  0
  138.6028  152.0884  143.2652 C   0  0  0  0  0  0  0  0  0  0  0  0
  137.4868  151.7382  144.1979 C   0  0  0  0  0  0  0  0  0  0  0  0
  139.9964  151.3955  141.4280 C   0  0  0  0  0  0  0  0  0  0  0  0
  139.7128  150.7435  140.2231 C   0  0  0  0  0  0  0  0  0  0  0  0
  138.1655  149.9543  142.6676 C   0  0  0  0  0  0  0  0  0  0  0  0
  137.0314  150.7372  144.2058 C   0  0  0  0  0  0  0  0  0  0  0  0
  137.1488  153.0331  145.0564 C   0  0  0  0  0  0  0  0  0  0  0  0
  137.3411  149.6547  143.5726 C   0  0  0  0  0  0  0  0  0  0  0  0
  1  2  1  0
  2  3  2  0
  1  4  1  0
  4  5  2  0
  1  6  2  0
  3  7  1  0
  3  8  1  0
  6  9  1  0
  7  9  2  0
M  END
$$$$

     RDKit          3D

  9  9  0  0  0  0  0  0  0  0999 V2000
  140.8778  150.5419  139.7337 Cl  0  0  0  0  0  0  0  0  0  0  0  0
  138.9614  150.5329  140.4448 C   0  0  0  0  0  0  0  0  0  0  0  0
  138.2154  149.5089  139.9489 C   0  0  0  0  0  0  0  0  0  0  0  0
  136.8617  149.5090  140.3210 C   0  0  0  0  0  0  0  0  0  0  0  0
  139.0012  151.0524  141.6434 C   0  0  0  0  0  0  0  0  0  0  0  0
  135.8256  148.9856  139.5667 C   0  0  0  0  0  0  0  0  0  0  0  0
  138.0766  150.9611  142.3866 C   0  0  0  0  0  0  0  0  0  0  0  0
  136.7667  150.3236  141.9494 C   0  0  0  0  0  0  0  0  0  0  0  0
  137.8473  151.3433  144.0532 Cl  0  0  0  0  0  0  0  0  0  0  0  0
  1  2  1  0
  2  3  2  0
  3  4  1  0
  2  5  1  0
  4  6  1  0
  5  7  2  0
  4  8  2  0
  7  8  1  0
  7  9  1  0
M  END
$$$$

     RDKit          3D

  9  9  0  0  0  0  0  0  0  0999 V2000
  139.2623  151.0928  142.4045 C   0  0  0  0  0  0  0  0  0  0  0  0
  138.8616  152.1314  142.9035 C   0  0  0  0  0  0  0  0  0  0  0  0
  137.7829  151.8931  143.8930 C   0  0  0  0  0  0  0  0  0  0  0  0
  138.7753  150.3081  141.6756 C   0  0  0  0  0  0  0  0  0  0  0  0
  137.2563  150.5222  143.8248 C   0  0  0  0  0  0  0  0  0  0  0  0
  139.2493  149.6675  140.4594 C   0  0  0  0  0  0  0  0  0  0  0  0
  140.2995  149.8202  139.8905 C   0  0  0  0  0  0  0  0  0  0  0  0
  140.5448  149.8443  138.4803 C   0  0  0  0  0  0  0  0  0  0  0  0
  137.5677  149.7150  142.4347 C   0  0  0  0  0  0  0  0  0  0  0  0
  1  2  1  0
  2  3  2  0
  1  4  2  0
  3  5  1  0
  4  6  1  0
  6  7  1  0
  7  8  2  0
  4  9  1  0
  5  9  1  0
M  END
$$$$

     RDKit          3D

  9  9  0  0  0  0  0  0  0  0999 V2000
  138.7247  151.5764  143.3183 C   0  0  0  0  0  0  0  0  0  0  0  0
  137.9184  152.3259  143.7535 C   0  0  0  0  0  0  0  0  0  0  0  0
  136.7531  151.7836  144.4567 C   0  0  0  0  0  0  0  0  0  0  0  0
  136.8362  150.4414  144.7132 C   0  0  0  0  0  0  0  0  0  0  0  0
  135.6788  152.5069  145.0354 C   0  0  0  0  0  0  0  0  0  0  0  0
  138.5021  150.1694  143.2610 C   0  0  0  0  0  0  0  0  0  0  0  0
  134.7277  151.9465  145.7042 C   0  0  0  0  0  0  0  0  0  0  0  0
  139.3649  149.2665  142.5493 C   0  0  0  0  0  0  0  0  0  0  0  0
  137.5897  149.5456  144.0420 N   0  0  0  0  0  0  0  0  0  0  0  0
  1  2  1  0
  2  3  2  0
  3  4  1  0
  3  5  1  0
  1  6  2  0
  5  7  1  0
  6  8  1  0
  4  9  2  0
  6  9  1  0
M  END
$$$$

     RDKit          3D

  9  9  0  0  0  0  0  0  0  0999 V2000
  139.2623  151.0928  142.4045 C   0  0  0  0  0  0  0  0  0  0  0  0
  138.8616  152.1314  142.9035 C   0  0  0  0  0  0  0  0  0  0  0  0
  137.9123  151.7989  143.7814 C   0  0  0  0  0  0  0  0  0  0  0  0
  138.8307  150.4000  141.6050 C   0  0  0  0  0  0  0  0  0  0  0  0
  137.2917  150.4868  143.7063 C   0  0  0  0  0  0  0  0  0  0  0  0
  136.3672  150.1231  144.7470 C   0  0  0  0  0  0  0  0  0  0  0  0
  139.2182  149.6607  140.4356 C   0  0  0  0  0  0  0  0  0  0  0  0
  140.3438  149.6030  139.9016 O   0  0  0  0  0  0  0  0  0  0  0  0
  137.5537  149.8980  142.2991 C   0  0  0  0  0  0  0  0  0  0  0  0
  1  2  1  0
  2  3  2  0
  1  4  2  0
  3  5  1  0
  5  6  1  0
  4  7  1  0
  7  8  2  0
  4  9  1  0
  5  9  2  0
M  END
$$$$

     RDKit          3D

  9  9  0  0  0  0  0  0  0  0999 V2000
  139.3433  149.9930  140.5896 C   0  0  0  0  0  0  0  0  0  0  0  0
  138.9754  149.9376  139.3599 C   0  0  0  0  0  0  0  0  0  0  0  0
  138.5874  150.0785  141.6373 C   0  0  0  0  0  0  0  0  0  0  0  0
  137.2141  149.9040  141.8313 C   0  0  0  0  0  0  0  0  0  0  0  0
  136.4597  150.2467  142.9686 C   0  0  0  0  0  0  0  0  0  0  0  0
  137.3768  150.8203  143.7505 C   0  0  0  0  0  0  0  0  0  0  0  0
  138.9109  150.6059  142.9820 C   0  0  0  0  0  0  0  0  0  0  0  0
  140.8166  150.1501  140.8316 C   0  0  0  0  0  0  0  0  0  0  0  0
  137.2949  151.3169  144.7728 O   0  0  0  0  0  0  0  0  0  0  0  0
  1  2  2  0
  1  3  1  0
  3  4  1  0
  4  5  2  0
  5  6  1  0
  3  7  1  0
  6  7  1  0
  1  8  1  0
  6  9  2  0
M  END
$$$$

     RDKit          3D

  9  9  0  0  0  0  0  0  0  0999 V2000
  140.8778  150.5419  139.7337 Cl  0  0  0  0  0  0  0  0  0  0  0  0
  138.9614  150.5329  140.4448 C   0  0  0  0  0  0  0  0  0  0  0  0
  138.2154  149.5089  139.9489 C   0  0  0  0  0  0  0  0  0  0  0  0
  139.3728  150.7516  141.8137 C   0  0  0  0  0  0  0  0  0  0  0  0
  138.3889  151.1916  142.5594 C   0  0  0  0  0  0  0  0  0  0  0  0
  137.0492  150.6984  142.3907 C   0  0  0  0  0  0  0  0  0  0  0  0
  136.8232  149.6137  140.6413 C   0  0  0  0  0  0  0  0  0  0  0  0
  136.4178  150.0450  141.4993 C   0  0  0  0  0  0  0  0  0  0  0  0
  138.6523  151.7914  143.9889 C   0  0  0  0  0  0  0  0  0  0  0  0
  1  2  1  0
  2  3  1  0
  2  4  2  0
  4  5  1  0
  5  6  2  0
  3  7  2  0
  6  8  1  0
  7  8  1  0
  5  9  1  0
M  END
$$$$

     RDKit          3D

  9  8  0  0  0  0  0  0  0  0999 V2000
  138.7092  151.1474  142.6270 C   0  0  0  0  0  0  0  0  0  0  0  0
  138.5252  151.9373  143.5111 C   0  0  0  0  0  0  0  0  0  0  0  0
  137.3814  151.6573  144.3961 C   0  0  0  0  0  0  0  0  0  0  0  0
  136.7840  152.7103  145.2476 C   0  0  0  0  0  0  0  0  0  0  0  0
  139.0383  151.5321  141.1683 C   0  0  0  0  0  0  0  0  0  0  0  0
  139.6348  150.5614  140.4492 C   0  0  0  0  0  0  0  0  0  0  0  0
  137.1621  153.9300  145.1016 C   0  0  0  0  0  0  0  0  0  0  0  0
  135.9855  152.3473  145.9637 O   0  0  0  0  0  0  0  0  0  0  0  0
  139.9472  150.7510  139.1042 C   0  0  0  0  0  0  0  0  0  0  0  0
  1  2  1  0
  2  3  2  3
  3  4  1  0
  1  5  1  0
  5  6  1  0
  4  7  1  0
  4  8  2  0
  6  9  1  0
M  END
$$$$

     RDKit          3D

  9  8  0  0  0  0  0  0  0  0999 V2000
  138.7092  151.1474  142.6270 C   0  0  0  0  0  0  0  0  0  0  0  0
  138.5252  151.9373  143.5111 C   0  0  0  0  0  0  0  0  0  0  0  0
  137.3814  151.6573  144.3961 C   0  0  0  0  0  0  0  0  0  0  0  0
  139.7031  151.1128  141.6105 C   0  0  0  0  0  0  0  0  0  0  0  0
  136.7531  152.5760  145.3055 C   0  0  0  0  0  0  0  0  0  0  0  0
  137.1138  153.8544  145.1669 C   0  0  0  0  0  0  0  0  0  0  0  0
  135.6500  152.2684  145.9256 C   0  0  0  0  0  0  0  0  0  0  0  0
  139.6054  150.4222  140.3479 C   0  0  0  0  0  0  0  0  0  0  0  0
  140.4586  150.4156  139.2569 C   0  0  0  0  0  0  0  0  0  0  0  0
  1  2  1  0
  2  3  2  3
  1  4  1  0
  3  5  1  0
  5  6  1  0
  5  7  2  0
  4  8  2  3
  8  9  1  0
M  END
$$$$

     RDKit          3D

  9  9  0  0  0  0  0  0  0  0999 V2000
  138.9699  151.3138  142.5680 C   0  0  0  0  0  0  0  0  0  0  0  0
  138.6028  152.0884  143.2652 C   0  0  0  0  0  0  0  0  0  0  0  0
  137.6377  151.6909  144.0815 C   0  0  0  0  0  0  0  0  0  0  0  0
  137.2743  150.3458  144.1256 C   0  0  0  0  0  0  0  0  0  0  0  0
  138.6285  149.8576  142.4561 C   0  0  0  0  0  0  0  0  0  0  0  0
  136.6700  152.4504  145.1379 C   0  0  0  0  0  0  0  0  0  0  0  0
  135.6331  151.8358  145.6654 C   0  0  0  0  0  0  0  0  0  0  0  0
  137.8369  149.3985  143.3438 C   0  0  0  0  0  0  0  0  0  0  0  0
  136.8820  153.7666  145.2921 C   0  0  0  0  0  0  0  0  0  0  0  0
  1  2  1  0
  2  3  2  0
  3  4  1  0
  1  5  2  0
  3  6  1  0
  6  7  1  0
  4  8  2  0
  5  8  1  0
  6  9  2  0
M  END
$$$$

     RDKit          3D

  9  8  0  0  0  0  0  0  0  0999 V2000
  140.8778  150.5419  139.7337 Cl  0  0  0  0  0  0  0  0  0  0  0  0
  138.9614  150.5329  140.4448 C   0  0  0  0  0  0  0  0  0  0  0  0
  138.2154  149.5089  139.9489 C   0  0  0  0  0  0  0  0  0  0  0  0
  138.7771  151.4412  141.4365 C   0  0  0  0  0  0  0  0  0  0  0  0
  137.6505  151.2689  142.2281 C   0  0  0  0  0  0  0  0  0  0  0  0
  138.3890  148.8791  138.6827 C   0  0  0  0  0  0  0  0  0  0  0  0
  137.5470  151.8903  143.6119 C   0  0  0  0  0  0  0  0  0  0  0  0
  138.6031  152.3937  144.2752 C   0  0  0  0  0  0  0  0  0  0  0  0
  136.8023  151.5052  144.5993 C   0  0  0  0  0  0  0  0  0  0  0  0
  1  2  1  0
  2  3  2  3
  2  4  1  0
  4  5  2  3
  3  6  1  0
  5  7  1  0
  7  8  1  0
  7  9  1  0
M  END
$$$$

     RDKit          3D

  9  9  0  0  0  0  0  0  0  0999 V2000
  139.5354  150.8919  142.2313 C   0  0  0  0  0  0  0  0  0  0  0  0
  139.0141  150.3968  141.0590 C   0  0  0  0  0  0  0  0  0  0  0  0
  138.6982  150.9504  143.4037 C   0  0  0  0  0  0  0  0  0  0  0  0
  137.7122  149.9430  141.0471 C   0  0  0  0  0  0  0  0  0  0  0  0
  136.8877  150.0378  141.9924 C   0  0  0  0  0  0  0  0  0  0  0  0
  137.4219  150.6710  143.3660 C   0  0  0  0  0  0  0  0  0  0  0  0
  136.5214  150.8281  144.4872 C   0  0  0  0  0  0  0  0  0  0  0  0
  139.8331  150.3434  139.8845 C   0  0  0  0  0  0  0  0  0  0  0  0
  139.3318  150.3527  138.6402 C   0  0  0  0  0  0  0  0  0  0  0  0
  1  2  2  0
  1  3  1  0
  2  4  1  0
  4  5  2  0
  3  6  2  0
  5  6  1  0
  6  7  1  0
  2  8  1  0
  8  9  2  0
M  END
$$$$

     RDKit          3D

  9  8  0  0  0  0  0  0  0  0999 V2000
  138.7092  151.1474  142.6270 C   0  0  0  0  0  0  0  0  0  0  0  0
  138.5252  151.9373  143.5111 C   0  0  0  0  0  0  0  0  0  0  0  0
  137.3814  151.6573  144.3961 C   0  0  0  0  0  0  0  0  0  0  0  0
  136.7840  152.7103  145.2476 C   0  0  0  0  0  0  0  0  0  0  0  0
  139.0383  151.5321  141.1683 C   0  0  0  0  0  0  0  0  0  0  0  0
  139.6348  150.5614  140.4492 C   0  0  0  0  0  0  0  0  0  0  0  0
  139.9600  150.7640  139.1034 C   0  0  0  0  0  0  0  0  0  0  0  0
  137.1544  153.9319  145.1130 C   0  0  0  0  0  0  0  0  0  0  0  0
  135.9735  152.3228  145.9681 C   0  0  0  0  0  0  0  0  0  0  0  0
  1  2  1  0
  2  3  2  3
  3  4  1  0
  1  5  1  0
  5  6  1  0
  6  7  1  0
  4  8  1  0
  4  9  2  0
M  END
$$$$

     RDKit          3D

  9  9  0  0  0  0  0  0  0  0999 V2000
  139.3433  149.9930  140.5896 C   0  0  0  0  0  0  0  0  0  0  0  0
  138.9754  149.9376  139.3599 C   0  0  0  0  0  0  0  0  0  0  0  0
  138.5874  150.0785  141.6373 C   0  0  0  0  0  0  0  0  0  0  0  0
  137.2141  149.9040  141.8313 C   0  0  0  0  0  0  0  0  0  0  0  0
  136.4597  150.2467  142.9686 C   0  0  0  0  0  0  0  0  0  0  0  0
  135.1343  150.3946  143.2569 C   0  0  0  0  0  0  0  0  0  0  0  0
  137.6270  150.3922  143.9380 C   0  0  0  0  0  0  0  0  0  0  0  0
  138.8796  150.3493  142.9503 C   0  0  0  0  0  0  0  0  0  0  0  0
  137.3998  151.5364  144.7505 C   0  0  0  0  0  0  0  0  0  0  0  0
  1  2  2  0
  1  3  1  0
  3  4  1  0
  4  5  2  0
  5  6  1  0
  5  7  1  0
  3  8  2  0
  7  8  1  0
  7  9  1  0
M  END
$$$$

     RDKit          3D

  9  8  0  0  0  0  0  0  0  0999 V2000
  139.2623  151.0928  142.4045 C   0  0  0  0  0  0  0  0  0  0  0  0
  138.8616  152.1314  142.9035 C   0  0  0  0  0  0  0  0  0  0  0  0
  137.7829  151.8931  143.8930 C   0  0  0  0  0  0  0  0  0  0  0  0
  140.0683  150.9662  141.1540 C   0  0  0  0  0  0  0  0  0  0  0  0
  139.9042  149.9108  140.2223 C   0  0  0  0  0  0  0  0  0  0  0  0
  137.4088  152.4027  144.9124 C   0  0  0  0  0  0  0  0  0  0  0  0
  140.1520  150.2887  138.9083 C   0  0  0  0  0  0  0  0  0  0  0  0
  136.0566  152.4809  145.4402 C   0  0  0  0  0  0  0  0  0  0  0  0
  135.2008  151.4577  144.9252 C   0  0  0  0  0  0  0  0  0  0  0  0
  1  2  1  0
  2  3  2  3
  1  4  1  0
  4  5  1  0
  3  6  1  0
  5  7  1  0
  6  8  2  3
  8  9  1  0
M  END
$$$$

     RDKit          3D

  9  9  0  0  0  0  0  0  0  0999 V2000
  138.9699  151.3138  142.5680 C   0  0  0  0  0  0  0  0  0  0  0  0
  138.6028  152.0884  143.2652 C   0  0  0  0  0  0  0  0  0  0  0  0
  137.4868  151.7382  144.1979 C   0  0  0  0  0  0  0  0  0  0  0  0
  137.1833  150.3915  144.2669 C   0  0  0  0  0  0  0  0  0  0  0  0
  136.7811  152.6135  145.0963 C   0  0  0  0  0  0  0  0  0  0  0  0
  138.5932  149.8820  142.2910 C   0  0  0  0  0  0  0  0  0  0  0  0
  139.0943  149.0786  141.3798 C   0  0  0  0  0  0  0  0  0  0  0  0
  137.5983  149.4934  143.3292 C   0  0  0  0  0  0  0  0  0  0  0  0
  135.5233  152.2786  145.5594 C   0  0  0  0  0  0  0  0  0  0  0  0
  1  2  1  0
  2  3  2  0
  3  4  1  0
  3  5  1  0
  1  6  2  0
  6  7  1  0
  4  8  2  0
  6  8  1  0
  5  9  1  0
M  END
$$$$

     RDKit          3D

  9  9  0  0  0  0  0  0  0  0999 V2000
  139.2623  151.0928  142.4045 C   0  0  0  0  0  0  0  0  0  0  0  0
  138.8616  152.1314  142.9035 C   0  0  0  0  0  0  0  0  0  0  0  0
  137.9123  151.7989  143.7814 C   0  0  0  0  0  0  0  0  0  0  0  0
  138.8307  150.4000  141.6050 C   0  0  0  0  0  0  0  0  0  0  0  0
  137.2917  150.4868  143.7063 C   0  0  0  0  0  0  0  0  0  0  0  0
  139.3794  149.8759  140.3266 C   0  0  0  0  0  0  0  0  0  0  0  0
  140.5658  149.7114  139.9835 O   0  0  0  0  0  0  0  0  0  0  0  0
  138.3822  149.8252  139.4222 O   0  0  0  0  0  0  0  0  0  0  0  0
  137.5983  149.6934  142.2216 C   0  0  0  0  0  0  0  0  0  0  0  0
  1  2  1  0
  2  3  2  0
  1  4  2  0
  3  5  1  0
  4  6  1  0
  6  7  2  0
  6  8  1  0
  4  9  1  0
  5  9  2  0
M  END
$$$$

     RDKit          3D

  9  9  0  0  0  0  0  0  0  0999 V2000
  138.9699  151.3138  142.5680 C   0  0  0  0  0  0  0  0  0  0  0  0
  138.6028  152.0884  143.2652 C   0  0  0  0  0  0  0  0  0  0  0  0
  137.4868  151.7382  144.1979 C   0  0  0  0  0  0  0  0  0  0  0  0
  139.9964  151.3955  141.4280 C   0  0  0  0  0  0  0  0  0  0  0  0
  137.1558  150.3526  144.0264 C   0  0  0  0  0  0  0  0  0  0  0  0
  139.8257  150.4770  140.3147 C   0  0  0  0  0  0  0  0  0  0  0  0
  138.8512  149.5063  140.5932 C   0  0  0  0  0  0  0  0  0  0  0  0
  138.3136  149.9794  142.1449 C   0  0  0  0  0  0  0  0  0  0  0  0
  137.0120  152.6982  145.1013 C   0  0  0  0  0  0  0  0  0  0  0  0
  1  2  1  0
  2  3  2  3
  1  4  1  0
  3  5  1  0
  4  6  2  0
  6  7  1  0
  1  8  2  0
  7  8  2  0
  3  9  1  0
M  END
$$$$

     RDKit          3D

  9  9  0  0  0  0  0  0  0  0999 V2000
  139.2623  151.0928  142.4045 C   0  0  0  0  0  0  0  0  0  0  0  0
  138.8616  152.1314  142.9035 C   0  0  0  0  0  0  0  0  0  0  0  0
  137.9123  151.7989  143.7814 C   0  0  0  0  0  0  0  0  0  0  0  0
  138.8307  150.4000  141.6050 C   0  0  0  0  0  0  0  0  0  0  0  0
  137.6881  149.9457  141.7522 C   0  0  0  0  0  0  0  0  0  0  0  0
  137.5093  152.6054  144.9569 C   0  0  0  0  0  0  0  0  0  0  0  0
  136.2294  152.8169  145.1366 C   0  0  0  0  0  0  0  0  0  0  0  0
  136.7750  150.5428  142.8350 C   0  0  0  0  0  0  0  0  0  0  0  0
  135.3190  152.0664  145.9330 C   0  0  0  0  0  0  0  0  0  0  0  0
  1  2  1  0
  2  3  2  0
  1  4  2  0
  4  5  1  0
  3  6  1  0
  6  7  2  3
  3  8  1  0
  5  8  1  0
  7  9  1  0
M  END
$$$$

     RDKit          3D

  9  9  0  0  0  0  0  0  0  0999 V2000
  138.7247  151.5764  143.3183 C   0  0  0  0  0  0  0  0  0  0  0  0
  137.9184  152.3259  143.7535 C   0  0  0  0  0  0  0  0  0  0  0  0
  136.7531  151.7836  144.4567 C   0  0  0  0  0  0  0  0  0  0  0  0
  136.8362  150.4414  144.7132 C   0  0  0  0  0  0  0  0  0  0  0  0
  135.7194  152.4649  144.9810 C   0  0  0  0  0  0  0  0  0  0  0  0
  138.5080  150.1689  143.2471 C   0  0  0  0  0  0  0  0  0  0  0  0
  134.7225  151.9501  145.5715 C   0  0  0  0  0  0  0  0  0  0  0  0
  139.3174  149.2253  142.5629 C   0  0  0  0  0  0  0  0  0  0  0  0
  137.5207  149.6185  144.0577 N   0  0  0  0  0  0  0  0  0  0  0  0
  1  2  1  0
  2  3  2  0
  3  4  1  0
  3  5  1  0
  1  6  2  0
  5  7  2  0
  6  8  1  0
  4  9  2  0
  6  9  1  0
M  END
$$$$

     RDKit          3D

 10 10  0  0  0  0  0  0  0  0999 V2000
  138.9699  151.3138  142.5680 C   0  0  0  0  0  0  0  0  0  0  0  0
  138.6028  152.0884  143.2652 C   0  0  0  0  0  0  0  0  0  0  0  0
  137.4868  151.7382  144.1979 C   0  0  0  0  0  0  0  0  0  0  0  0
  139.9964  151.3955  141.4280 C   0  0  0  0  0  0  0  0  0  0  0  0
  139.7128  150.7435  140.2231 C   0  0  0  0  0  0  0  0  0  0  0  0
  137.0980  150.3607  143.9160 C   0  0  0  0  0  0  0  0  0  0  0  0
  140.5468  150.8049  139.0790 C   0  0  0  0  0  0  0  0  0  0  0  0
  138.2889  149.9004  142.4160 C   0  0  0  0  0  0  0  0  0  0  0  0
  136.0423  150.0047  145.0081 C   0  0  0  0  0  0  0  0  0  0  0  0
  137.4398  149.6025  143.3566 C   0  0  0  0  0  0  0  0  0  0  0  0
  1  2  1  0
  2  3  2  0
  1  4  1  0
  4  5  2  3
  3  6  1  0
  5  7  1  0
  1  8  2  0
  6  9  1  0
  6 10  2  0
  8 10  1  0
M  END
$$$$

     RDKit          3D

 10 11  0  0  0  0  0  0  0  0999 V2000
  139.2623  151.0928  142.4045 C   0  0  0  0  0  0  0  0  0  0  0  0
  138.8616  152.1314  142.9035 C   0  0  0  0  0  0  0  0  0  0  0  0
  137.9123  151.7989  143.7814 C   0  0  0  0  0  0  0  0  0  0  0  0
  138.8307  150.4000  141.6050 C   0  0  0  0  0  0  0  0  0  0  0  0
  137.6881  149.9457  141.7522 C   0  0  0  0  0  0  0  0  0  0  0  0
  137.5093  152.6054  144.9569 C   0  0  0  0  0  0  0  0  0  0  0  0
  136.2294  152.8169  145.1366 C   0  0  0  0  0  0  0  0  0  0  0  0
  136.7612  150.7584  143.6309 C   0  0  0  0  0  0  0  0  0  0  0  0
  135.7274  151.1221  144.5705 C   0  0  0  0  0  0  0  0  0  0  0  0
  136.6556  150.2212  142.6015 C   0  0  0  0  0  0  0  0  0  0  0  0
  1  2  1  0
  2  3  2  0
  1  4  2  0
  4  5  1  0
  3  6  1  0
  6  7  2  0
  3  8  1  0
  7  9  1  0
  8  9  1  0
  5 10  2  0
  8 10  1  0
M  END
$$$$

     RDKit          3D

 10 10  0  0  0  0  0  0  0  0999 V2000
  139.5354  150.8919  142.2313 C   0  0  0  0  0  0  0  0  0  0  0  0
  139.0141  150.3968  141.0590 C   0  0  0  0  0  0  0  0  0  0  0  0
  138.6982  150.9504  143.4037 C   0  0  0  0  0  0  0  0  0  0  0  0
  137.7122  149.9430  141.0471 C   0  0  0  0  0  0  0  0  0  0  0  0
  136.8205  150.0007  142.1552 C   0  0  0  0  0  0  0  0  0  0  0  0
  137.3773  150.5801  143.3378 C   0  0  0  0  0  0  0  0  0  0  0  0
  136.5266  150.7559  144.5356 C   0  0  0  0  0  0  0  0  0  0  0  0
  139.9043  150.4183  139.7635 C   0  0  0  0  0  0  0  0  0  0  0  0
  141.2683  150.4222  139.9673 C   0  0  0  0  0  0  0  0  0  0  0  0
  139.4110  150.4227  138.8446 O   0  0  0  0  0  0  0  0  0  0  0  0
  1  2  2  0
  1  3  1  0
  2  4  1  0
  4  5  2  0
  3  6  2  0
  5  6  1  0
  6  7  1  0
  2  8  1  0
  8  9  1  0
  8 10  2  0
M  END
$$$$

     RDKit          3D

 10 11  0  0  0  0  0  0  0  0999 V2000
  138.7247  151.5764  143.3183 C   0  0  0  0  0  0  0  0  0  0  0  0
  137.9184  152.3259  143.7535 C   0  0  0  0  0  0  0  0  0  0  0  0
  136.7531  151.7836  144.4567 C   0  0  0  0  0  0  0  0  0  0  0  0
  136.8362  150.4414  144.7132 C   0  0  0  0  0  0  0  0  0  0  0  0
  135.6788  152.5069  145.0354 C   0  0  0  0  0  0  0  0  0  0  0  0
  138.5021  150.1694  143.2610 C   0  0  0  0  0  0  0  0  0  0  0  0
  134.7277  151.9465  145.7042 C   0  0  0  0  0  0  0  0  0  0  0  0
  135.8904  149.9662  145.7055 C   0  0  0  0  0  0  0  0  0  0  0  0
  134.7727  150.6181  146.1660 C   0  0  0  0  0  0  0  0  0  0  0  0
  137.7464  149.5834  144.1629 C   0  0  0  0  0  0  0  0  0  0  0  0
  1  2  1  0
  2  3  2  0
  3  4  1  0
  3  5  1  0
  1  6  2  0
  5  7  1  0
  4  8  1  0
  7  9  1  0
  8  9  2  0
  4 10  2  0
  6 10  1  0
M  END
$$$$

     RDKit          3D

 10 11  0  0  0  0  0  0  0  0999 V2000
  138.9699  151.3138  142.5680 C   0  0  0  0  0  0  0  0  0  0  0  0
  138.6028  152.0884  143.2652 C   0  0  0  0  0  0  0  0  0  0  0  0
  137.5215  151.7910  144.2137 C   0  0  0  0  0  0  0  0  0  0  0  0
  138.4654  149.8627  142.6374 C   0  0  0  0  0  0  0  0  0  0  0  0
  137.0423  152.8343  145.0505 C   0  0  0  0  0  0  0  0  0  0  0  0
  136.9785  150.4743  144.2467 C   0  0  0  0  0  0  0  0  0  0  0  0
  135.9915  150.1448  145.2503 C   0  0  0  0  0  0  0  0  0  0  0  0
  137.4509  149.5731  143.5578 N   0  0  0  0  0  0  0  0  0  0  0  0
  135.7500  152.8458  145.6245 C   0  0  0  0  0  0  0  0  0  0  0  0
  135.4085  151.4305  145.7953 C   0  0  0  0  0  0  0  0  0  0  0  0
  1  2  2  0
  2  3  1  0
  1  4  1  0
  3  5  1  0
  3  6  2  0
  6  7  1  0
  4  8  2  0
  6  8  1  0
  5  9  2  0
  7 10  2  0
  9 10  1  0
M  END
$$$$

     RDKit          3D

 10 11  0  0  0  0  0  0  0  0999 V2000
  138.7247  151.5764  143.3183 C   0  0  0  0  0  0  0  0  0  0  0  0
  137.9184  152.3259  143.7535 C   0  0  0  0  0  0  0  0  0  0  0  0
  136.7531  151.7836  144.4567 C   0  0  0  0  0  0  0  0  0  0  0  0
  136.8362  150.4414  144.7132 C   0  0  0  0  0  0  0  0  0  0  0  0
  135.6788  152.5069  145.0354 C   0  0  0  0  0  0  0  0  0  0  0  0
  138.5021  150.1694  143.2610 C   0  0  0  0  0  0  0  0  0  0  0  0
  134.7277  151.9465  145.7042 C   0  0  0  0  0  0  0  0  0  0  0  0
  135.8904  149.9662  145.7055 C   0  0  0  0  0  0  0  0  0  0  0  0
  134.7727  150.6181  146.1660 C   0  0  0  0  0  0  0  0  0  0  0  0
  137.6721  149.6416  144.1105 N   0  0  0  0  0  0  0  0  0  0  0  0
  1  2  1  0
  2  3  2  0
  3  4  1  0
  3  5  1  0
  1  6  2  0
  5  7  1  0
  4  8  1  0
  7  9  1  0
  8  9  2  0
  4 10  2  0
  6 10  1  0
M  END
$$$$

     RDKit          3D

 10 10  0  0  0  0  0  0  0  0999 V2000
  138.7247  151.5764  143.3183 C   0  0  0  0  0  0  0  0  0  0  0  0
  137.9184  152.3259  143.7535 C   0  0  0  0  0  0  0  0  0  0  0  0
  136.7531  151.7836  144.4567 C   0  0  0  0  0  0  0  0  0  0  0  0
  136.8362  150.4414  144.7132 C   0  0  0  0  0  0  0  0  0  0  0  0
  138.7265  150.3748  143.0129 C   0  0  0  0  0  0  0  0  0  0  0  0
  139.6213  149.6149  142.1899 C   0  0  0  0  0  0  0  0  0  0  0  0
  135.8497  152.6994  145.2001 C   0  0  0  0  0  0  0  0  0  0  0  0
  137.6363  149.7174  143.8827 C   0  0  0  0  0  0  0  0  0  0  0  0
  139.4930  149.9926  140.7728 C   0  0  0  0  0  0  0  0  0  0  0  0
  140.3426  150.2991  140.1368 C   0  0  0  0  0  0  0  0  0  0  0  0
  1  2  1  0
  2  3  2  0
  3  4  1  0
  1  5  2  0
  5  6  1  0
  3  7  1  0
  4  8  2  0
  5  8  1  0
  6  9  1  0
  9 10  2  0
M  END
$$$$

     RDKit          3D

 10 10  0  0  0  0  0  0  0  0999 V2000
  138.9699  151.3138  142.5680 C   0  0  0  0  0  0  0  0  0  0  0  0
  138.6028  152.0884  143.2652 C   0  0  0  0  0  0  0  0  0  0  0  0
  137.6377  151.6909  144.0815 C   0  0  0  0  0  0  0  0  0  0  0  0
  137.2743  150.3458  144.1256 C   0  0  0  0  0  0  0  0  0  0  0  0
  138.6285  149.8576  142.4561 C   0  0  0  0  0  0  0  0  0  0  0  0
  136.6700  152.4504  145.1379 C   0  0  0  0  0  0  0  0  0  0  0  0
  135.6331  151.8358  145.6654 C   0  0  0  0  0  0  0  0  0  0  0  0
  139.2204  148.9918  141.5742 O   0  0  0  0  0  0  0  0  0  0  0  0
  137.7098  149.4662  143.3958 C   0  0  0  0  0  0  0  0  0  0  0  0
  136.8027  153.5340  145.2525 O   0  0  0  0  0  0  0  0  0  0  0  0
  1  2  1  0
  2  3  2  0
  3  4  1  0
  1  5  2  0
  3  6  1  0
  6  7  1  0
  5  8  1  0
  4  9  2  0
  5  9  1  0
  6 10  2  0
M  END
$$$$

     RDKit          3D

 10 11  0  0  0  0  0  0  0  0999 V2000
  138.9699  151.3138  142.5680 C   0  0  0  0  0  0  0  0  0  0  0  0
  138.6028  152.0884  143.2652 C   0  0  0  0  0  0  0  0  0  0  0  0
  139.7631  151.4673  141.3548 C   0  0  0  0  0  0  0  0  0  0  0  0
  137.7630  151.7029  144.3616 C   0  0  0  0  0  0  0  0  0  0  0  0
  137.3920  150.3001  144.2733 C   0  0  0  0  0  0  0  0  0  0  0  0
  139.5876  150.5258  140.3061 C   0  0  0  0  0  0  0  0  0  0  0  0
  138.2783  149.8916  142.6868 C   0  0  0  0  0  0  0  0  0  0  0  0
  138.8826  149.4400  140.3320 C   0  0  0  0  0  0  0  0  0  0  0  0
  137.6572  149.5103  143.5163 C   0  0  0  0  0  0  0  0  0  0  0  0
  138.3943  149.1114  141.3719 C   0  0  0  0  0  0  0  0  0  0  0  0
  1  2  1  0
  1  3  1  0
  2  4  2  0
  4  5  1  0
  3  6  2  0
  1  7  2  0
  6  8  1  0
  5  9  2  0
  7  9  1  0
  7 10  1  0
  8 10  2  0
M  END
$$$$

     RDKit          3D

 10 10  0  0  0  0  0  0  0  0999 V2000
  138.9699  151.3138  142.5680 C   0  0  0  0  0  0  0  0  0  0  0  0
  138.6028  152.0884  143.2652 C   0  0  0  0  0  0  0  0  0  0  0  0
  137.6691  151.8112  144.0575 C   0  0  0  0  0  0  0  0  0  0  0  0
  136.5758  152.7066  144.5957 C   0  0  0  0  0  0  0  0  0  0  0  0
  135.5865  152.4520  145.5239 C   0  0  0  0  0  0  0  0  0  0  0  0
  139.9119  151.4259  141.3573 C   0  0  0  0  0  0  0  0  0  0  0  0
  139.8487  150.4694  140.2834 C   0  0  0  0  0  0  0  0  0  0  0  0
  135.7170  151.0041  145.8457 C   0  0  0  0  0  0  0  0  0  0  0  0
  136.7358  150.1728  145.2915 C   0  0  0  0  0  0  0  0  0  0  0  0
  137.5383  150.4826  144.5862 C   0  0  0  0  0  0  0  0  0  0  0  0
  1  2  2  3
  2  3  1  0
  3  4  1  0
  4  5  2  0
  1  6  1  0
  6  7  1  0
  5  8  1  0
  8  9  2  0
  3 10  2  0
  9 10  1  0
M  END
$$$$

     RDKit          3D

 10 10  0  0  0  0  0  0  0  0999 V2000
  138.9699  151.3138  142.5680 C   0  0  0  0  0  0  0  0  0  0  0  0
  138.6028  152.0884  143.2652 C   0  0  0  0  0  0  0  0  0  0  0  0
  137.6377  151.6909  144.0815 C   0  0  0  0  0  0  0  0  0  0  0  0
  137.2743  150.3458  144.1256 C   0  0  0  0  0  0  0  0  0  0  0  0
  138.6285  149.8576  142.4561 C   0  0  0  0  0  0  0  0  0  0  0  0
  136.6700  152.4504  145.1379 C   0  0  0  0  0  0  0  0  0  0  0  0
  135.6331  151.8358  145.6654 C   0  0  0  0  0  0  0  0  0  0  0  0
  139.2204  148.9918  141.5742 O   0  0  0  0  0  0  0  0  0  0  0  0
  137.7098  149.4662  143.3958 C   0  0  0  0  0  0  0  0  0  0  0  0
  136.8803  153.7756  145.2913 C   0  0  0  0  0  0  0  0  0  0  0  0
  1  2  1  0
  2  3  2  0
  3  4  1  0
  1  5  2  0
  3  6  1  0
  6  7  1  0
  5  8  1  0
  4  9  2  0
  5  9  1  0
  6 10  2  0
M  END
$$$$

     RDKit          3D

 10 10  0  0  0  0  0  0  0  0999 V2000
  139.5354  150.8919  142.2313 C   0  0  0  0  0  0  0  0  0  0  0  0
  139.0141  150.3968  141.0590 C   0  0  0  0  0  0  0  0  0  0  0  0
  138.6982  150.9504  143.4037 C   0  0  0  0  0  0  0  0  0  0  0  0
  137.7122  149.9430  141.0471 C   0  0  0  0  0  0  0  0  0  0  0  0
  136.8205  150.0007  142.1552 C   0  0  0  0  0  0  0  0  0  0  0  0
  137.3773  150.5801  143.3378 C   0  0  0  0  0  0  0  0  0  0  0  0
  139.9154  150.3802  139.7401 C   0  0  0  0  0  0  0  0  0  0  0  0
  141.2729  150.3819  139.9547 C   0  0  0  0  0  0  0  0  0  0  0  0
  139.3995  150.3460  138.9295 O   0  0  0  0  0  0  0  0  0  0  0  0
  136.4724  150.8537  144.7783 Cl  0  0  0  0  0  0  0  0  0  0  0  0
  1  2  2  0
  1  3  1  0
  2  4  1  0
  4  5  2  0
  3  6  2  0
  5  6  1  0
  2  7  1  0
  7  8  1  0
  7  9  2  0
  6 10  1  0
M  END
$$$$

     RDKit          3D

 10 10  0  0  0  0  0  0  0  0999 V2000
  140.8778  150.5419  139.7337 Cl  0  0  0  0  0  0  0  0  0  0  0  0
  138.9614  150.5329  140.4448 C   0  0  0  0  0  0  0  0  0  0  0  0
  138.2154  149.5089  139.9489 C   0  0  0  0  0  0  0  0  0  0  0  0
  139.1215  151.1800  141.6231 C   0  0  0  0  0  0  0  0  0  0  0  0
  138.0837  150.9004  142.5999 C   0  0  0  0  0  0  0  0  0  0  0  0
  137.1000  149.9215  142.1731 C   0  0  0  0  0  0  0  0  0  0  0  0
  135.9904  149.8133  143.1128 C   0  0  0  0  0  0  0  0  0  0  0  0
  138.1966  149.0122  138.6984 C   0  0  0  0  0  0  0  0  0  0  0  0
  136.9849  149.3809  140.8520 C   0  0  0  0  0  0  0  0  0  0  0  0
  138.1718  151.5134  143.9834 C   0  0  0  0  0  0  0  0  0  0  0  0
  1  2  1  0
  2  3  2  0
  2  4  1  0
  4  5  2  0
  5  6  1  0
  6  7  1  0
  3  8  1  0
  3  9  1  0
  6  9  2  0
  5 10  1  0
M  END
$$$$

     RDKit          3D

 10 11  0  0  0  0  0  0  0  0999 V2000
  139.2623  151.0928  142.4045 C   0  0  0  0  0  0  0  0  0  0  0  0
  138.8616  152.1314  142.9035 C   0  0  0  0  0  0  0  0  0  0  0  0
  137.9123  151.7989  143.7814 C   0  0  0  0  0  0  0  0  0  0  0  0
  138.8307  150.4000  141.6050 C   0  0  0  0  0  0  0  0  0  0  0  0
  137.6881  149.9457  141.7522 C   0  0  0  0  0  0  0  0  0  0  0  0
  137.5093  152.6054  144.9569 C   0  0  0  0  0  0  0  0  0  0  0  0
  136.2294  152.8169  145.1366 C   0  0  0  0  0  0  0  0  0  0  0  0
  136.7612  150.7584  143.6309 C   0  0  0  0  0  0  0  0  0  0  0  0
  136.7166  150.0070  142.5932 C   0  0  0  0  0  0  0  0  0  0  0  0
  135.8616  151.2791  144.5473 C   0  0  0  0  0  0  0  0  0  0  0  0
  1  2  1  0
  2  3  2  0
  1  4  2  0
  4  5  1  0
  3  6  1  0
  6  7  2  0
  3  8  1  0
  5  9  2  0
  8  9  1  0
  7 10  1  0
  8 10  2  0
M  END
$$$$

     RDKit          3D

 10 10  0  0  0  0  0  0  0  0999 V2000
  138.7092  151.1474  142.6270 C   0  0  0  0  0  0  0  0  0  0  0  0
  138.5252  151.9373  143.5111 C   0  0  0  0  0  0  0  0  0  0  0  0
  137.3814  151.6573  144.3961 C   0  0  0  0  0  0  0  0  0  0  0  0
  139.7031  151.1128  141.6105 C   0  0  0  0  0  0  0  0  0  0  0  0
  136.7109  150.4281  144.0240 C   0  0  0  0  0  0  0  0  0  0  0  0
  137.9078  150.0157  142.3135 C   0  0  0  0  0  0  0  0  0  0  0  0
  136.9001  149.6281  143.0958 C   0  0  0  0  0  0  0  0  0  0  0  0
  136.9739  152.5734  145.6292 C   0  0  0  0  0  0  0  0  0  0  0  0
  139.6240  151.0350  140.3510 C   0  0  0  0  0  0  0  0  0  0  0  0
  140.3531  150.6640  139.5340 C   0  0  0  0  0  0  0  0  0  0  0  0
  1  2  1  0
  2  3  2  0
  1  4  1  0
  3  5  1  0
  1  6  2  0
  5  7  2  0
  6  7  1  0
  3  8  1  0
  4  9  2  3
  9 10  1  0
M  END
$$$$

     RDKit          3D

 10 10  0  0  0  0  0  0  0  0999 V2000
  139.2623  151.0928  142.4045 C   0  0  0  0  0  0  0  0  0  0  0  0
  138.8616  152.1314  142.9035 C   0  0  0  0  0  0  0  0  0  0  0  0
  137.9123  151.7989  143.7814 C   0  0  0  0  0  0  0  0  0  0  0  0
  138.8307  150.4000  141.6050 C   0  0  0  0  0  0  0  0  0  0  0  0
  137.6881  149.9457  141.7522 C   0  0  0  0  0  0  0  0  0  0  0  0
  136.7288  151.0164  143.4803 C   0  0  0  0  0  0  0  0  0  0  0  0
  135.6067  151.2451  144.4314 C   0  0  0  0  0  0  0  0  0  0  0  0
  136.6062  150.1290  142.4917 C   0  0  0  0  0  0  0  0  0  0  0  0
  139.6757  149.6776  140.4287 C   0  0  0  0  0  0  0  0  0  0  0  0
  140.8905  150.0488  140.1803 C   0  0  0  0  0  0  0  0  0  0  0  0
  1  2  1  0
  2  3  2  0
  1  4  2  0
  4  5  1  0
  3  6  1  0
  6  7  1  0
  5  8  1  0
  6  8  2  0
  4  9  1  0
  9 10  2  0
M  END
$$$$

     RDKit          3D

 10 10  0  0  0  0  0  0  0  0999 V2000
  139.2623  151.0928  142.4045 C   0  0  0  0  0  0  0  0  0  0  0  0
  138.8616  152.1314  142.9035 C   0  0  0  0  0  0  0  0  0  0  0  0
  137.9123  151.7989  143.7814 C   0  0  0  0  0  0  0  0  0  0  0  0
  138.8307  150.4000  141.6050 C   0  0  0  0  0  0  0  0  0  0  0  0
  137.2917  150.4868  143.7063 C   0  0  0  0  0  0  0  0  0  0  0  0
  136.3672  150.1231  144.7470 C   0  0  0  0  0  0  0  0  0  0  0  0
  139.2182  149.6607  140.4356 C   0  0  0  0  0  0  0  0  0  0  0  0
  140.3438  149.6030  139.9016 O   0  0  0  0  0  0  0  0  0  0  0  0
  138.1214  149.3213  139.8588 O   0  0  0  0  0  0  0  0  0  0  0  0
  137.5920  149.9063  142.5316 C   0  0  0  0  0  0  0  0  0  0  0  0
  1  2  1  0
  2  3  2  0
  1  4  2  0
  3  5  1  0
  5  6  1  0
  4  7  1  0
  7  8  2  0
  7  9  1  0
  4 10  1  0
  5 10  2  0
M  END
$$$$

     RDKit          3D

 10 10  0  0  0  0  0  0  0  0999 V2000
  139.5354  150.8919  142.2313 C   0  0  0  0  0  0  0  0  0  0  0  0
  139.0141  150.3968  141.0590 C   0  0  0  0  0  0  0  0  0  0  0  0
  138.6982  150.9504  143.4037 C   0  0  0  0  0  0  0  0  0  0  0  0
  137.7122  149.9430  141.0471 C   0  0  0  0  0  0  0  0  0  0  0  0
  136.8877  150.0378  141.9924 C   0  0  0  0  0  0  0  0  0  0  0  0
  137.4219  150.6710  143.3660 C   0  0  0  0  0  0  0  0  0  0  0  0
  136.5214  150.8281  144.4872 C   0  0  0  0  0  0  0  0  0  0  0  0
  139.8331  150.3434  139.8845 C   0  0  0  0  0  0  0  0  0  0  0  0
  139.3318  150.3527  138.6402 C   0  0  0  0  0  0  0  0  0  0  0  0
  141.2437  150.3708  140.0790 C   0  0  0  0  0  0  0  0  0  0  0  0
  1  2  2  0
  1  3  1  0
  2  4  1  0
  4  5  2  0
  3  6  2  0
  5  6  1  0
  6  7  1  0
  2  8  1  0
  8  9  1  0
  8 10  2  0
M  END
$$$$

     RDKit          3D

 10 11  0  0  0  0  0  0  0  0999 V2000
  138.9699  151.3138  142.5680 C   0  0  0  0  0  0  0  0  0  0  0  0
  138.6028  152.0884  143.2652 C   0  0  0  0  0  0  0  0  0  0  0  0
  137.4868  151.7382  144.1979 C   0  0  0  0  0  0  0  0  0  0  0  0
  139.9964  151.3955  141.4280 C   0  0  0  0  0  0  0  0  0  0  0  0
  137.1558  150.3526  144.0264 C   0  0  0  0  0  0  0  0  0  0  0  0
  139.8257  150.4770  140.3147 C   0  0  0  0  0  0  0  0  0  0  0  0
  138.8512  149.5063  140.5932 C   0  0  0  0  0  0  0  0  0  0  0  0
  136.1607  150.0251  145.0532 C   0  0  0  0  0  0  0  0  0  0  0  0
  138.3296  150.0144  142.1609 C   0  0  0  0  0  0  0  0  0  0  0  0
  137.5804  149.7155  143.0180 N   0  0  0  0  0  0  0  0  0  0  0  0
  1  2  1  0
  2  3  2  0
  1  4  1  0
  3  5  1  0
  4  6  2  0
  6  7  1  0
  5  8  1  0
  1  9  2  0
  7  9  1  0
  5 10  2  0
  9 10  1  0
M  END
$$$$

     RDKit          3D

 10 10  0  0  0  0  0  0  0  0999 V2000
  138.7247  151.5764  143.3183 C   0  0  0  0  0  0  0  0  0  0  0  0
  137.9184  152.3259  143.7535 C   0  0  0  0  0  0  0  0  0  0  0  0
  136.7531  151.7836  144.4567 C   0  0  0  0  0  0  0  0  0  0  0  0
  136.8362  150.4414  144.7132 C   0  0  0  0  0  0  0  0  0  0  0  0
  138.7265  150.3748  143.0129 C   0  0  0  0  0  0  0  0  0  0  0  0
  139.6213  149.6149  142.1899 C   0  0  0  0  0  0  0  0  0  0  0  0
  135.5288  152.2529  145.0435 C   0  0  0  0  0  0  0  0  0  0  0  0
  139.4750  149.9170  140.7713 C   0  0  0  0  0  0  0  0  0  0  0  0
  137.8218  149.8727  143.8448 N   0  0  0  0  0  0  0  0  0  0  0  0
  140.2842  150.2467  140.1377 C   0  0  0  0  0  0  0  0  0  0  0  0
  1  2  1  0
  2  3  2  0
  3  4  1  0
  1  5  2  0
  5  6  1  0
  3  7  1  0
  6  8  1  0
  4  9  1  0
  5  9  1  0
  8 10  2  0
M  END
$$$$

     RDKit          3D

 10 10  0  0  0  0  0  0  0  0999 V2000
  138.7247  151.5764  143.3183 C   0  0  0  0  0  0  0  0  0  0  0  0
  137.9184  152.3259  143.7535 C   0  0  0  0  0  0  0  0  0  0  0  0
  136.7531  151.7836  144.4567 C   0  0  0  0  0  0  0  0  0  0  0  0
  136.8362  150.4414  144.7132 C   0  0  0  0  0  0  0  0  0  0  0  0
  135.6788  152.5069  145.0354 C   0  0  0  0  0  0  0  0  0  0  0  0
  138.5021  150.1694  143.2610 C   0  0  0  0  0  0  0  0  0  0  0  0
  134.7277  151.9465  145.7042 C   0  0  0  0  0  0  0  0  0  0  0  0
  137.6529  149.5250  144.1181 C   0  0  0  0  0  0  0  0  0  0  0  0
  135.6792  153.8910  144.8413 C   0  0  0  0  0  0  0  0  0  0  0  0
  136.8134  154.7419  145.0471 C   0  0  0  0  0  0  0  0  0  0  0  0
  1  2  1  0
  2  3  2  0
  3  4  1  0
  3  5  1  0
  1  6  2  0
  5  7  1  0
  4  8  2  0
  6  8  1  0
  5  9  2  3
  9 10  1  0
M  END
$$$$

     RDKit          3D

 10 11  0  0  0  0  0  0  0  0999 V2000
  140.8778  150.5419  139.7337 Cl  0  0  0  0  0  0  0  0  0  0  0  0
  138.9614  150.5329  140.4448 C   0  0  0  0  0  0  0  0  0  0  0  0
  138.2154  149.5089  139.9489 C   0  0  0  0  0  0  0  0  0  0  0  0
  139.1215  151.1800  141.6231 C   0  0  0  0  0  0  0  0  0  0  0  0
  138.0837  150.9004  142.5999 C   0  0  0  0  0  0  0  0  0  0  0  0
  137.1000  149.9215  142.1731 C   0  0  0  0  0  0  0  0  0  0  0  0
  135.9904  149.8133  143.1128 C   0  0  0  0  0  0  0  0  0  0  0  0
  136.2020  150.8803  144.1689 C   0  0  0  0  0  0  0  0  0  0  0  0
  137.4491  151.3365  144.2920 C   0  0  0  0  0  0  0  0  0  0  0  0
  137.0159  149.4465  140.8131 C   0  0  0  0  0  0  0  0  0  0  0  0
  1  2  1  0
  2  3  2  0
  2  4  1  0
  4  5  2  0
  5  6  1  0
  6  7  1  0
  7  8  1  0
  5  9  1  0
  8  9  2  0
  3 10  1  0
  6 10  2  0
M  END
$$$$

     RDKit          3D

 10 11  0  0  0  0  0  0  0  0999 V2000
  138.7247  151.5764  143.3183 C   0  0  0  0  0  0  0  0  0  0  0  0
  137.9184  152.3259  143.7535 C   0  0  0  0  0  0  0  0  0  0  0  0
  136.7531  151.7836  144.4567 C   0  0  0  0  0  0  0  0  0  0  0  0
  136.8362  150.4414  144.7132 C   0  0  0  0  0  0  0  0  0  0  0  0
  135.6788  152.5069  145.0354 C   0  0  0  0  0  0  0  0  0  0  0  0
  138.5021  150.1694  143.2610 C   0  0  0  0  0  0  0  0  0  0  0  0
  134.7277  151.9465  145.7042 C   0  0  0  0  0  0  0  0  0  0  0  0
  135.8904  149.9662  145.7055 C   0  0  0  0  0  0  0  0  0  0  0  0
  137.7225  149.7427  144.0622 C   0  0  0  0  0  0  0  0  0  0  0  0
  134.8665  150.7086  146.2944 C   0  0  0  0  0  0  0  0  0  0  0  0
  1  2  1  0
  2  3  2  0
  3  4  1  0
  3  5  1  0
  1  6  2  0
  5  7  1  0
  4  8  1  0
  4  9  2  0
  6  9  1  0
  7 10  2  0
  8 10  1  0
M  END
$$$$

     RDKit          3D

 10 10  0  0  0  0  0  0  0  0999 V2000
  138.9699  151.3138  142.5680 C   0  0  0  0  0  0  0  0  0  0  0  0
  138.6028  152.0884  143.2652 C   0  0  0  0  0  0  0  0  0  0  0  0
  137.6377  151.6909  144.0815 C   0  0  0  0  0  0  0  0  0  0  0  0
  140.0280  151.3254  141.4174 C   0  0  0  0  0  0  0  0  0  0  0  0
  137.1957  150.3125  143.8946 C   0  0  0  0  0  0  0  0  0  0  0  0
  139.6504  150.7722  140.2036 C   0  0  0  0  0  0  0  0  0  0  0  0
  140.4619  150.8147  139.0456 C   0  0  0  0  0  0  0  0  0  0  0  0
  138.2393  149.9111  142.4118 C   0  0  0  0  0  0  0  0  0  0  0  0
  136.2038  149.9532  145.0500 C   0  0  0  0  0  0  0  0  0  0  0  0
  137.5384  149.5386  143.0423 N   0  0  0  0  0  0  0  0  0  0  0  0
  1  2  1  0
  2  3  2  0
  1  4  1  0
  3  5  1  0
  4  6  2  3
  6  7  1  0
  1  8  2  0
  5  9  1  0
  5 10  2  0
  8 10  1  0
M  END
$$$$

     RDKit          3D

 10 10  0  0  0  0  0  0  0  0999 V2000
  140.8778  150.5419  139.7337 Cl  0  0  0  0  0  0  0  0  0  0  0  0
  138.9614  150.5329  140.4448 C   0  0  0  0  0  0  0  0  0  0  0  0
  138.2154  149.5089  139.9489 C   0  0  0  0  0  0  0  0  0  0  0  0
  138.7771  151.4412  141.4365 C   0  0  0  0  0  0  0  0  0  0  0  0
  137.6505  151.2689  142.2281 C   0  0  0  0  0  0  0  0  0  0  0  0
  136.9500  149.3135  140.6952 C   0  0  0  0  0  0  0  0  0  0  0  0
  137.4106  152.0264  143.4061 C   0  0  0  0  0  0  0  0  0  0  0  0
  136.3941  151.5697  144.3087 C   0  0  0  0  0  0  0  0  0  0  0  0
  136.7049  150.1506  141.7514 C   0  0  0  0  0  0  0  0  0  0  0  0
  138.3820  152.4814  143.8775 O   0  0  0  0  0  0  0  0  0  0  0  0
  1  2  1  0
  2  3  2  0
  2  4  1  0
  4  5  2  0
  3  6  1  0
  5  7  1  0
  7  8  1  0
  5  9  1  0
  6  9  2  0
  7 10  2  0
M  END
$$$$

     RDKit          3D

 10 11  0  0  0  0  0  0  0  0999 V2000
  138.7247  151.5764  143.3183 C   0  0  0  0  0  0  0  0  0  0  0  0
  137.9184  152.3259  143.7535 C   0  0  0  0  0  0  0  0  0  0  0  0
  136.7531  151.7836  144.4567 C   0  0  0  0  0  0  0  0  0  0  0  0
  136.8362  150.4414  144.7132 C   0  0  0  0  0  0  0  0  0  0  0  0
  135.6788  152.5069  145.0354 C   0  0  0  0  0  0  0  0  0  0  0  0
  138.5021  150.1694  143.2610 C   0  0  0  0  0  0  0  0  0  0  0  0
  134.7277  151.9465  145.7042 C   0  0  0  0  0  0  0  0  0  0  0  0
  135.8904  149.9662  145.7055 C   0  0  0  0  0  0  0  0  0  0  0  0
  134.9184  150.7332  146.2587 C   0  0  0  0  0  0  0  0  0  0  0  0
  137.7225  149.5130  144.0956 C   0  0  0  0  0  0  0  0  0  0  0  0
  1  2  1  0
  2  3  2  0
  3  4  1  0
  3  5  1  0
  1  6  2  0
  5  7  1  0
  4  8  1  0
  7  9  1  0
  8  9  1  0
  4 10  2  0
  6 10  1  0
M  END
$$$$

     RDKit          3D

 10 11  0  0  0  0  0  0  0  0999 V2000
  138.9699  151.3138  142.5680 C   0  0  0  0  0  0  0  0  0  0  0  0
  138.6028  152.0884  143.2652 C   0  0  0  0  0  0  0  0  0  0  0  0
  137.6377  151.6909  144.0815 C   0  0  0  0  0  0  0  0  0  0  0  0
  137.2743  150.3458  144.1256 C   0  0  0  0  0  0  0  0  0  0  0  0
  138.6285  149.8576  142.4561 C   0  0  0  0  0  0  0  0  0  0  0  0
  136.6700  152.4504  145.1379 C   0  0  0  0  0  0  0  0  0  0  0  0
  136.3863  149.8734  145.1985 C   0  0  0  0  0  0  0  0  0  0  0  0
  137.8244  149.3930  143.3637 C   0  0  0  0  0  0  0  0  0  0  0  0
  135.9230  151.0764  145.7791 C   0  0  0  0  0  0  0  0  0  0  0  0
  136.3460  153.5094  145.3380 C   0  0  0  0  0  0  0  0  0  0  0  0
  1  2  1  0
  2  3  2  0
  3  4  1  0
  1  5  2  0
  3  6  1  0
  4  7  1  0
  4  8  2  0
  5  8  1  0
  6  9  1  0
  7  9  2  0
  6 10  2  0
M  END
$$$$

     RDKit          3D

 10 10  0  0  0  0  0  0  0  0999 V2000
  139.2623  151.0928  142.4045 C   0  0  0  0  0  0  0  0  0  0  0  0
  138.8616  152.1314  142.9035 C   0  0  0  0  0  0  0  0  0  0  0  0
  137.7829  151.8931  143.8930 C   0  0  0  0  0  0  0  0  0  0  0  0
  138.7753  150.3081  141.6756 C   0  0  0  0  0  0  0  0  0  0  0  0
  137.2563  150.5222  143.8248 C   0  0  0  0  0  0  0  0  0  0  0  0
  139.2493  149.6675  140.4594 C   0  0  0  0  0  0  0  0  0  0  0  0
  140.2995  149.8202  139.8905 C   0  0  0  0  0  0  0  0  0  0  0  0
  137.5622  149.7299  142.4901 C   0  0  0  0  0  0  0  0  0  0  0  0
  141.4562  150.3648  140.4919 C   0  0  0  0  0  0  0  0  0  0  0  0
  139.9050  150.1275  138.6589 C   0  0  0  0  0  0  0  0  0  0  0  0
  1  2  1  0
  2  3  2  0
  1  4  2  0
  3  5  1  0
  4  6  1  0
  6  7  1  0
  4  8  1  0
  5  8  2  0
  7  9  1  0
  7 10  1  0
M  END
$$$$

     RDKit          3D

 10 11  0  0  0  0  0  0  0  0999 V2000
  138.9699  151.3138  142.5680 C   0  0  0  0  0  0  0  0  0  0  0  0
  138.6028  152.0884  143.2652 C   0  0  0  0  0  0  0  0  0  0  0  0
  139.7631  151.4673  141.3548 C   0  0  0  0  0  0  0  0  0  0  0  0
  137.7630  151.7029  144.3616 C   0  0  0  0  0  0  0  0  0  0  0  0
  137.3920  150.3001  144.2733 C   0  0  0  0  0  0  0  0  0  0  0  0
  139.6783  150.4729  140.2830 C   0  0  0  0  0  0  0  0  0  0  0  0
  138.5625  149.8017  142.2890 C   0  0  0  0  0  0  0  0  0  0  0  0
  137.2189  152.7020  145.2832 C   0  0  0  0  0  0  0  0  0  0  0  0
  137.7534  149.2744  143.4402 C   0  0  0  0  0  0  0  0  0  0  0  0
  139.0571  149.3549  141.0593 C   0  0  0  0  0  0  0  0  0  0  0  0
  1  2  1  0
  1  3  1  0
  2  4  2  0
  4  5  1  0
  3  6  2  0
  1  7  2  0
  4  8  1  0
  5  9  2  0
  7  9  1  0
  6 10  1  0
  7 10  1  0
M  END
$$$$

     RDKit          3D

 10 11  0  0  0  0  0  0  0  0999 V2000
  138.9699  151.3138  142.5680 C   0  0  0  0  0  0  0  0  0  0  0  0
  138.6028  152.0884  143.2652 C   0  0  0  0  0  0  0  0  0  0  0  0
  137.6377  151.6909  144.0815 C   0  0  0  0  0  0  0  0  0  0  0  0
  137.2743  150.3458  144.1256 C   0  0  0  0  0  0  0  0  0  0  0  0
  138.6285  149.8576  142.4561 C   0  0  0  0  0  0  0  0  0  0  0  0
  136.6700  152.4504  145.1379 C   0  0  0  0  0  0  0  0  0  0  0  0
  136.3863  149.8734  145.1985 C   0  0  0  0  0  0  0  0  0  0  0  0
  137.8244  149.3930  143.3637 C   0  0  0  0  0  0  0  0  0  0  0  0
  135.9230  151.0764  145.7791 C   0  0  0  0  0  0  0  0  0  0  0  0
  136.5875  153.5158  145.1866 O   0  0  0  0  0  0  0  0  0  0  0  0
  1  2  1  0
  2  3  2  0
  3  4  1  0
  1  5  2  0
  3  6  1  0
  4  7  1  0
  4  8  2  0
  5  8  1  0
  6  9  1  0
  7  9  2  0
  6 10  2  0
M  END
$$$$

     RDKit          3D

 10 10  0  0  0  0  0  0  0  0999 V2000
  140.8778  150.5419  139.7337 Cl  0  0  0  0  0  0  0  0  0  0  0  0
  138.9614  150.5329  140.4448 C   0  0  0  0  0  0  0  0  0  0  0  0
  138.2154  149.5089  139.9489 C   0  0  0  0  0  0  0  0  0  0  0  0
  138.9058  151.3604  141.4410 C   0  0  0  0  0  0  0  0  0  0  0  0
  137.7037  151.1653  142.2004 C   0  0  0  0  0  0  0  0  0  0  0  0
  137.6067  151.8428  143.5371 C   0  0  0  0  0  0  0  0  0  0  0  0
  136.9199  150.1333  141.6274 C   0  0  0  0  0  0  0  0  0  0  0  0
  136.9844  149.4676  140.5659 C   0  0  0  0  0  0  0  0  0  0  0  0
  136.4610  151.4991  144.3153 C   0  0  0  0  0  0  0  0  0  0  0  0
  138.5983  152.6705  144.0310 C   0  0  0  0  0  0  0  0  0  0  0  0
  1  2  1  0
  2  3  1  0
  2  4  2  0
  4  5  1  0
  5  6  1  0
  5  7  2  0
  3  8  2  0
  7  8  1  0
  6  9  1  0
  6 10  2  0
M  END
$$$$

     RDKit          3D

 10 11  0  0  0  0  0  0  0  0999 V2000
  138.9699  151.3138  142.5680 C   0  0  0  0  0  0  0  0  0  0  0  0
  138.6028  152.0884  143.2652 C   0  0  0  0  0  0  0  0  0  0  0  0
  137.4868  151.7382  144.1979 C   0  0  0  0  0  0  0  0  0  0  0  0
  139.9964  151.3955  141.4280 C   0  0  0  0  0  0  0  0  0  0  0  0
  139.7128  150.7435  140.2231 C   0  0  0  0  0  0  0  0  0  0  0  0
  137.0980  150.3607  143.9160 C   0  0  0  0  0  0  0  0  0  0  0  0
  138.4640  149.8986  142.0939 C   0  0  0  0  0  0  0  0  0  0  0  0
  136.9642  152.6727  145.1065 C   0  0  0  0  0  0  0  0  0  0  0  0
  138.9165  149.6803  140.3561 C   0  0  0  0  0  0  0  0  0  0  0  0
  137.5560  149.3364  142.9762 C   0  0  0  0  0  0  0  0  0  0  0  0
  1  2  1  0
  2  3  2  0
  1  4  1  0
  4  5  2  0
  3  6  1  0
  1  7  2  0
  3  8  1  0
  5  9  1  0
  7  9  1  0
  6 10  1  0
  7 10  1  0
M  END
$$$$

     RDKit          3D

 10 10  0  0  0  0  0  0  0  0999 V2000
  139.2623  151.0928  142.4045 C   0  0  0  0  0  0  0  0  0  0  0  0
  138.8616  152.1314  142.9035 C   0  0  0  0  0  0  0  0  0  0  0  0
  137.7829  151.8931  143.8930 C   0  0  0  0  0  0  0  0  0  0  0  0
  137.3593  150.5405  144.0611 C   0  0  0  0  0  0  0  0  0  0  0  0
  136.3238  150.4657  145.1214 C   0  0  0  0  0  0  0  0  0  0  0  0
  139.7279  151.0842  140.8951 C   0  0  0  0  0  0  0  0  0  0  0  0
  135.7754  151.4815  145.5058 C   0  0  0  0  0  0  0  0  0  0  0  0
  137.0289  152.8288  144.5639 C   0  0  0  0  0  0  0  0  0  0  0  0
  136.0884  152.7076  145.4487 C   0  0  0  0  0  0  0  0  0  0  0  0
  135.3906  153.8314  145.9747 C   0  0  0  0  0  0  0  0  0  0  0  0
  1  2  1  0
  2  3  2  3
  3  4  1  0
  4  5  2  0
  1  6  1  0
  5  7  1  0
  3  8  1  0
  7  9  2  0
  8  9  1  0
  9 10  1  0
M  END
$$$$

     RDKit          3D

 10 11  0  0  0  0  0  0  0  0999 V2000
  139.2623  151.0928  142.4045 C   0  0  0  0  0  0  0  0  0  0  0  0
  138.8616  152.1314  142.9035 C   0  0  0  0  0  0  0  0  0  0  0  0
  137.7829  151.8931  143.8930 C   0  0  0  0  0  0  0  0  0  0  0  0
  138.6299  149.7790  142.4971 C   0  0  0  0  0  0  0  0  0  0  0  0
  137.3048  153.0079  144.6642 C   0  0  0  0  0  0  0  0  0  0  0  0
  136.0063  152.9003  145.3273 C   0  0  0  0  0  0  0  0  0  0  0  0
  135.3554  151.6773  145.1752 C   0  0  0  0  0  0  0  0  0  0  0  0
  137.2298  150.4596  143.8948 C   0  0  0  0  0  0  0  0  0  0  0  0
  136.1551  150.4654  145.0344 C   0  0  0  0  0  0  0  0  0  0  0  0
  137.8717  149.5117  143.3007 N   0  0  0  0  0  0  0  0  0  0  0  0
  1  2  1  0
  2  3  2  0
  1  4  2  0
  3  5  1  0
  5  6  2  0
  6  7  1  0
  3  8  1  0
  7  9  1  0
  8  9  1  0
  4 10  1  0
  8 10  2  0
M  END
$$$$

     RDKit          3D

 10 10  0  0  0  0  0  0  0  0999 V2000
  140.8778  150.5419  139.7337 Cl  0  0  0  0  0  0  0  0  0  0  0  0
  138.9614  150.5329  140.4448 C   0  0  0  0  0  0  0  0  0  0  0  0
  138.2154  149.5089  139.9489 C   0  0  0  0  0  0  0  0  0  0  0  0
  138.9058  151.3604  141.4410 C   0  0  0  0  0  0  0  0  0  0  0  0
  137.7037  151.1653  142.2004 C   0  0  0  0  0  0  0  0  0  0  0  0
  137.6067  151.8428  143.5371 C   0  0  0  0  0  0  0  0  0  0  0  0
  136.9199  150.1333  141.6274 C   0  0  0  0  0  0  0  0  0  0  0  0
  136.9844  149.4676  140.5659 C   0  0  0  0  0  0  0  0  0  0  0  0
  138.5834  152.5603  144.0849 C   0  0  0  0  0  0  0  0  0  0  0  0
  136.9164  151.4148  144.4213 O   0  0  0  0  0  0  0  0  0  0  0  0
  1  2  1  0
  2  3  1  0
  2  4  2  0
  4  5  1  0
  5  6  1  0
  5  7  2  0
  3  8  2  0
  7  8  1  0
  6  9  1  0
  6 10  1  0
M  END
$$$$

     RDKit          3D

 10 10  0  0  0  0  0  0  0  0999 V2000
  138.9699  151.3138  142.5680 C   0  0  0  0  0  0  0  0  0  0  0  0
  138.6028  152.0884  143.2652 C   0  0  0  0  0  0  0  0  0  0  0  0
  137.4868  151.7382  144.1979 C   0  0  0  0  0  0  0  0  0  0  0  0
  139.9964  151.3955  141.4280 C   0  0  0  0  0  0  0  0  0  0  0  0
  137.1558  150.3526  144.0264 C   0  0  0  0  0  0  0  0  0  0  0  0
  139.8257  150.4770  140.3147 C   0  0  0  0  0  0  0  0  0  0  0  0
  138.1696  149.9545  142.5822 C   0  0  0  0  0  0  0  0  0  0  0  0
  136.7797  152.4339  145.1859 C   0  0  0  0  0  0  0  0  0  0  0  0
  138.9907  149.5265  140.1518 C   0  0  0  0  0  0  0  0  0  0  0  0
  140.9747  150.6509  139.2043 C   0  0  0  0  0  0  0  0  0  0  0  0
  1  2  1  0
  2  3  2  0
  1  4  1  0
  3  5  1  0
  4  6  2  3
  1  7  2  0
  5  7  1  0
  3  8  1  0
  6  9  1  0
  6 10  1  0
M  END
$$$$

     RDKit          3D

 10 11  0  0  0  0  0  0  0  0999 V2000
  138.9699  151.3138  142.5680 C   0  0  0  0  0  0  0  0  0  0  0  0
  138.6028  152.0884  143.2652 C   0  0  0  0  0  0  0  0  0  0  0  0
  137.4868  151.7382  144.1979 C   0  0  0  0  0  0  0  0  0  0  0  0
  137.1833  150.3915  144.2669 C   0  0  0  0  0  0  0  0  0  0  0  0
  138.6180  149.8353  142.4958 C   0  0  0  0  0  0  0  0  0  0  0  0
  136.6476  152.5434  145.1228 C   0  0  0  0  0  0  0  0  0  0  0  0
  135.5087  152.0680  145.6322 C   0  0  0  0  0  0  0  0  0  0  0  0
  136.2760  149.9956  145.2629 C   0  0  0  0  0  0  0  0  0  0  0  0
  137.8147  149.3734  143.4785 C   0  0  0  0  0  0  0  0  0  0  0  0
  135.5726  150.9671  145.9055 C   0  0  0  0  0  0  0  0  0  0  0  0
  1  2  1  0
  2  3  2  0
  3  4  1  0
  1  5  2  0
  3  6  1  0
  6  7  1  0
  4  8  1  0
  4  9  2  0
  5  9  1  0
  7 10  2  0
  8 10  2  0
M  END
$$$$

     RDKit          3D

 10 10  0  0  0  0  0  0  0  0999 V2000
  139.2623  151.0928  142.4045 C   0  0  0  0  0  0  0  0  0  0  0  0
  138.8616  152.1314  142.9035 C   0  0  0  0  0  0  0  0  0  0  0  0
  137.9123  151.7989  143.7814 C   0  0  0  0  0  0  0  0  0  0  0  0
  138.8307  150.4000  141.6050 C   0  0  0  0  0  0  0  0  0  0  0  0
  137.4500  149.9889  142.0899 C   0  0  0  0  0  0  0  0  0  0  0  0
  136.5748  149.1711  141.4778 C   0  0  0  0  0  0  0  0  0  0  0  0
  137.5023  152.5494  144.9772 C   0  0  0  0  0  0  0  0  0  0  0  0
  137.0053  150.7187  143.2784 C   0  0  0  0  0  0  0  0  0  0  0  0
  136.1750  152.6235  145.3414 C   0  0  0  0  0  0  0  0  0  0  0  0
  135.5728  151.7736  146.2653 C   0  0  0  0  0  0  0  0  0  0  0  0
  1  2  1  0
  2  3  2  0
  1  4  2  0
  4  5  1  0
  5  6  1  0
  3  7  1  0
  3  8  1  0
  5  8  2  0
  7  9  1  0
  9 10  1  0
M  END
$$$$

     RDKit          3D

 10 11  0  0  0  0  0  0  0  0999 V2000
  138.9699  151.3138  142.5680 C   0  0  0  0  0  0  0  0  0  0  0  0
  138.6028  152.0884  143.2652 C   0  0  0  0  0  0  0  0  0  0  0  0
  137.4868  151.7382  144.1979 C   0  0  0  0  0  0  0  0  0  0  0  0
  139.9964  151.3955  141.4280 C   0  0  0  0  0  0  0  0  0  0  0  0
  137.1558  150.3526  144.0264 C   0  0  0  0  0  0  0  0  0  0  0  0
  139.8257  150.4770  140.3147 C   0  0  0  0  0  0  0  0  0  0  0  0
  138.8512  149.5063  140.5932 C   0  0  0  0  0  0  0  0  0  0  0  0
  136.1607  150.0251  145.0532 C   0  0  0  0  0  0  0  0  0  0  0  0
  138.3296  150.0144  142.1609 C   0  0  0  0  0  0  0  0  0  0  0  0
  137.4477  149.4821  143.0536 C   0  0  0  0  0  0  0  0  0  0  0  0
  1  2  1  0
  2  3  2  0
  1  4  1  0
  3  5  1  0
  4  6  2  0
  6  7  1  0
  5  8  1  0
  1  9  2  0
  7  9  1  0
  5 10  2  0
  9 10  1  0
M  END
$$$$

     RDKit          3D

 10 11  0  0  0  0  0  0  0  0999 V2000
  138.7247  151.5764  143.3183 C   0  0  0  0  0  0  0  0  0  0  0  0
  137.9184  152.3259  143.7535 C   0  0  0  0  0  0  0  0  0  0  0  0
  136.7531  151.7836  144.4567 C   0  0  0  0  0  0  0  0  0  0  0  0
  136.8362  150.4414  144.7132 C   0  0  0  0  0  0  0  0  0  0  0  0
  135.6788  152.5069  145.0354 C   0  0  0  0  0  0  0  0  0  0  0  0
  138.5021  150.1694  143.2610 C   0  0  0  0  0  0  0  0  0  0  0  0
  134.7277  151.9465  145.7042 C   0  0  0  0  0  0  0  0  0  0  0  0
  135.8904  149.9662  145.7055 C   0  0  0  0  0  0  0  0  0  0  0  0
  134.9184  150.7332  146.2587 C   0  0  0  0  0  0  0  0  0  0  0  0
  137.7001  149.6173  144.0202 N   0  0  0  0  0  0  0  0  0  0  0  0
  1  2  1  0
  2  3  2  0
  3  4  1  0
  3  5  1  0
  1  6  2  0
  5  7  1  0
  4  8  1  0
  7  9  1  0
  8  9  1  0
  4 10  2  0
  6 10  1  0
M  END
$$$$

     RDKit          3D

 10 10  0  0  0  0  0  0  0  0999 V2000
  138.7247  151.5764  143.3183 C   0  0  0  0  0  0  0  0  0  0  0  0
  137.9184  152.3259  143.7535 C   0  0  0  0  0  0  0  0  0  0  0  0
  136.7531  151.7836  144.4567 C   0  0  0  0  0  0  0  0  0  0  0  0
  136.8362  150.4414  144.7132 C   0  0  0  0  0  0  0  0  0  0  0  0
  135.6788  152.5069  145.0354 C   0  0  0  0  0  0  0  0  0  0  0  0
  138.5021  150.1694  143.2610 C   0  0  0  0  0  0  0  0  0  0  0  0
  134.7277  151.9465  145.7042 C   0  0  0  0  0  0  0  0  0  0  0  0
  139.3649  149.2665  142.5493 C   0  0  0  0  0  0  0  0  0  0  0  0
  137.5307  149.6139  144.0719 N   0  0  0  0  0  0  0  0  0  0  0  0
  136.2068  153.7727  145.3310 C   0  0  0  0  0  0  0  0  0  0  0  0
  1  2  1  0
  2  3  2  0
  3  4  1  0
  3  5  1  0
  1  6  2  0
  5  7  1  0
  6  8  1  0
  4  9  2  0
  6  9  1  0
  5 10  1  0
M  END
$$$$

     RDKit          3D

 10 10  0  0  0  0  0  0  0  0999 V2000
  139.3433  149.9930  140.5896 C   0  0  0  0  0  0  0  0  0  0  0  0
  138.9754  149.9376  139.3599 C   0  0  0  0  0  0  0  0  0  0  0  0
  138.5874  150.0785  141.6373 C   0  0  0  0  0  0  0  0  0  0  0  0
  137.2141  149.9040  141.8313 C   0  0  0  0  0  0  0  0  0  0  0  0
  136.5026  149.8244  140.5788 C   0  0  0  0  0  0  0  0  0  0  0  0
  139.7806  149.8598  138.1957 C   0  0  0  0  0  0  0  0  0  0  0  0
  135.0370  149.7548  140.5806 C   0  0  0  0  0  0  0  0  0  0  0  0
  139.2777  150.5041  143.0651 C   0  0  0  0  0  0  0  0  0  0  0  0
  137.0884  149.7439  139.3345 C   0  0  0  0  0  0  0  0  0  0  0  0
  138.3951  151.1986  143.8695 C   0  0  0  0  0  0  0  0  0  0  0  0
  1  2  2  0
  1  3  1  0
  3  4  1  0
  4  5  2  0
  2  6  1  0
  5  7  1  0
  3  8  1  0
  2  9  1  0
  5  9  1  0
  8 10  1  0
M  END
$$$$

     RDKit          3D

 10 10  0  0  0  0  0  0  0  0999 V2000
  139.2623  151.0928  142.4045 C   0  0  0  0  0  0  0  0  0  0  0  0
  138.8616  152.1314  142.9035 C   0  0  0  0  0  0  0  0  0  0  0  0
  137.7829  151.8931  143.8930 C   0  0  0  0  0  0  0  0  0  0  0  0
  137.3593  150.5405  144.0611 C   0  0  0  0  0  0  0  0  0  0  0  0
  136.3238  150.4657  145.1214 C   0  0  0  0  0  0  0  0  0  0  0  0
  139.7279  151.0842  140.8951 C   0  0  0  0  0  0  0  0  0  0  0  0
  135.7754  151.4815  145.5058 C   0  0  0  0  0  0  0  0  0  0  0  0
  137.0289  152.8288  144.5639 C   0  0  0  0  0  0  0  0  0  0  0  0
  134.6055  151.3142  146.5285 C   0  0  0  0  0  0  0  0  0  0  0  0
  136.0750  152.8032  145.3043 C   0  0  0  0  0  0  0  0  0  0  0  0
  1  2  1  0
  2  3  2  3
  3  4  1  0
  4  5  2  0
  1  6  1  0
  5  7  1  0
  3  8  1  0
  7  9  1  0
  7 10  2  0
  8 10  1  0
M  END
$$$$

     RDKit          3D

 10 10  0  0  0  0  0  0  0  0999 V2000
  139.3433  149.9930  140.5896 C   0  0  0  0  0  0  0  0  0  0  0  0
  138.9754  149.9376  139.3599 C   0  0  0  0  0  0  0  0  0  0  0  0
  138.5874  150.0785  141.6373 C   0  0  0  0  0  0  0  0  0  0  0  0
  137.2141  149.9040  141.8313 C   0  0  0  0  0  0  0  0  0  0  0  0
  136.4597  150.2467  142.9686 C   0  0  0  0  0  0  0  0  0  0  0  0
  137.3768  150.8203  143.7505 C   0  0  0  0  0  0  0  0  0  0  0  0
  138.9109  150.6059  142.9820 C   0  0  0  0  0  0  0  0  0  0  0  0
  137.3687  151.3454  144.8418 C   0  0  0  0  0  0  0  0  0  0  0  0
  136.6278  152.0518  145.5296 C   0  0  0  0  0  0  0  0  0  0  0  0
  135.1781  151.8568  145.3681 C   0  0  0  0  0  0  0  0  0  0  0  0
  1  2  2  0
  1  3  1  0
  3  4  1  0
  4  5  2  0
  5  6  1  0
  3  7  2  0
  6  7  1  0
  6  8  2  3
  8  9  1  0
  9 10  2  0
M  END
$$$$

     RDKit          3D

 10 10  0  0  0  0  0  0  0  0999 V2000
  139.2623  151.0928  142.4045 C   0  0  0  0  0  0  0  0  0  0  0  0
  138.8616  152.1314  142.9035 C   0  0  0  0  0  0  0  0  0  0  0  0
  137.7829  151.8931  143.8930 C   0  0  0  0  0  0  0  0  0  0  0  0
  137.3593  150.5405  144.0611 C   0  0  0  0  0  0  0  0  0  0  0  0
  136.3238  150.4657  145.1214 C   0  0  0  0  0  0  0  0  0  0  0  0
  139.7279  151.0842  140.8951 C   0  0  0  0  0  0  0  0  0  0  0  0
  135.7754  151.4815  145.5058 C   0  0  0  0  0  0  0  0  0  0  0  0
  137.0289  152.8288  144.5639 C   0  0  0  0  0  0  0  0  0  0  0  0
  134.6055  151.3142  146.5285 C   0  0  0  0  0  0  0  0  0  0  0  0
  136.0326  152.7657  145.3759 C   0  0  0  0  0  0  0  0  0  0  0  0
  1  2  1  0
  2  3  2  3
  3  4  1  0
  4  5  2  0
  1  6  1  0
  5  7  1  0
  3  8  1  0
  7  9  1  0
  7 10  2  0
  8 10  2  0
M  END
$$$$

     RDKit          3D

 10 10  0  0  0  0  0  0  0  0999 V2000
  139.5354  150.8919  142.2313 C   0  0  0  0  0  0  0  0  0  0  0  0
  139.0141  150.3968  141.0590 C   0  0  0  0  0  0  0  0  0  0  0  0
  138.6982  150.9504  143.4037 C   0  0  0  0  0  0  0  0  0  0  0  0
  137.7122  149.9430  141.0471 C   0  0  0  0  0  0  0  0  0  0  0  0
  136.8205  150.0007  142.1552 C   0  0  0  0  0  0  0  0  0  0  0  0
  137.3773  150.5801  143.3378 C   0  0  0  0  0  0  0  0  0  0  0  0
  139.9154  150.3802  139.7401 C   0  0  0  0  0  0  0  0  0  0  0  0
  141.2729  150.3819  139.9547 C   0  0  0  0  0  0  0  0  0  0  0  0
  139.3505  150.3513  138.6242 C   0  0  0  0  0  0  0  0  0  0  0  0
  139.8335  150.7093  137.5869 O   0  0  0  0  0  0  0  0  0  0  0  0
  1  2  2  0
  1  3  1  0
  2  4  1  0
  4  5  2  0
  3  6  2  0
  5  6  1  0
  2  7  1  0
  7  8  1  0
  7  9  2  3
  9 10  1  0
M  END
$$$$

     RDKit          3D

 10 10  0  0  0  0  0  0  0  0999 V2000
  139.2623  151.0928  142.4045 C   0  0  0  0  0  0  0  0  0  0  0  0
  138.8616  152.1314  142.9035 C   0  0  0  0  0  0  0  0  0  0  0  0
  137.7829  151.8931  143.8930 C   0  0  0  0  0  0  0  0  0  0  0  0
  137.3593  150.5405  144.0611 C   0  0  0  0  0  0  0  0  0  0  0  0
  136.3238  150.4657  145.1214 C   0  0  0  0  0  0  0  0  0  0  0  0
  139.7279  151.0842  140.8951 C   0  0  0  0  0  0  0  0  0  0  0  0
  135.7754  151.4815  145.5058 C   0  0  0  0  0  0  0  0  0  0  0  0
  137.0289  152.8288  144.5639 C   0  0  0  0  0  0  0  0  0  0  0  0
  134.6055  151.3142  146.5285 C   0  0  0  0  0  0  0  0  0  0  0  0
  136.0326  152.7657  145.3759 C   0  0  0  0  0  0  0  0  0  0  0  0
  1  2  1  0
  2  3  2  3
  3  4  1  0
  4  5  2  0
  1  6  1  0
  5  7  1  0
  3  8  1  0
  7  9  1  0
  7 10  1  0
  8 10  1  0
M  END
$$$$

     RDKit          3D

 10 11  0  0  0  0  0  0  0  0999 V2000
  138.9699  151.3138  142.5680 C   0  0  0  0  0  0  0  0  0  0  0  0
  138.6028  152.0884  143.2652 C   0  0  0  0  0  0  0  0  0  0  0  0
  139.7631  151.4673  141.3548 C   0  0  0  0  0  0  0  0  0  0  0  0
  137.7630  151.7029  144.3616 C   0  0  0  0  0  0  0  0  0  0  0  0
  137.3920  150.3001  144.2733 C   0  0  0  0  0  0  0  0  0  0  0  0
  139.6783  150.4729  140.2830 C   0  0  0  0  0  0  0  0  0  0  0  0
  138.5625  149.8017  142.2890 C   0  0  0  0  0  0  0  0  0  0  0  0
  137.2189  152.7020  145.2832 C   0  0  0  0  0  0  0  0  0  0  0  0
  139.0101  149.3921  140.6044 C   0  0  0  0  0  0  0  0  0  0  0  0
  137.8571  149.3275  143.3136 N   0  0  0  0  0  0  0  0  0  0  0  0
  1  2  1  0
  1  3  1  0
  2  4  2  0
  4  5  1  0
  3  6  2  0
  1  7  2  0
  4  8  1  0
  6  9  1  0
  7  9  1  0
  5 10  2  0
  7 10  1  0
M  END
$$$$

     RDKit          3D

 11 12  0  0  0  0  0  0  0  0999 V2000
  138.9699  151.3138  142.5680 C   0  0  0  0  0  0  0  0  0  0  0  0
  138.6028  152.0884  143.2652 C   0  0  0  0  0  0  0  0  0  0  0  0
  137.6377  151.6909  144.0815 C   0  0  0  0  0  0  0  0  0  0  0  0
  137.2743  150.3458  144.1256 C   0  0  0  0  0  0  0  0  0  0  0  0
  138.6285  149.8576  142.4561 C   0  0  0  0  0  0  0  0  0  0  0  0
  136.6700  152.4504  145.1379 C   0  0  0  0  0  0  0  0  0  0  0  0
  135.6331  151.8358  145.6654 C   0  0  0  0  0  0  0  0  0  0  0  0
  136.3437  149.9435  145.1557 C   0  0  0  0  0  0  0  0  0  0  0  0
  134.6137  152.7659  146.2520 C   0  0  0  0  0  0  0  0  0  0  0  0
  135.6583  150.4565  145.7215 C   0  0  0  0  0  0  0  0  0  0  0  0
  137.8400  149.5172  143.3039 N   0  0  0  0  0  0  0  0  0  0  0  0
  1  2  1  0
  2  3  2  0
  3  4  1  0
  1  5  2  0
  3  6  1  0
  6  7  1  0
  4  8  1  0
  7  9  1  0
  7 10  2  0
  8 10  2  0
  4 11  2  0
  5 11  1  0
M  END
$$$$

     RDKit          3D

 11 12  0  0  0  0  0  0  0  0999 V2000
  140.8778  150.5419  139.7337 Cl  0  0  0  0  0  0  0  0  0  0  0  0
  138.9614  150.5329  140.4448 C   0  0  0  0  0  0  0  0  0  0  0  0
  138.2154  149.5089  139.9489 C   0  0  0  0  0  0  0  0  0  0  0  0
  139.1215  151.1800  141.6231 C   0  0  0  0  0  0  0  0  0  0  0  0
  138.0837  150.9004  142.5999 C   0  0  0  0  0  0  0  0  0  0  0  0
  137.1000  149.9215  142.1731 C   0  0  0  0  0  0  0  0  0  0  0  0
  135.9904  149.8133  143.1128 C   0  0  0  0  0  0  0  0  0  0  0  0
  136.2020  150.8803  144.1689 C   0  0  0  0  0  0  0  0  0  0  0  0
  136.9584  149.4090  140.7717 C   0  0  0  0  0  0  0  0  0  0  0  0
  138.0889  151.4751  143.9267 C   0  0  0  0  0  0  0  0  0  0  0  0
  137.1301  151.3615  144.8138 C   0  0  0  0  0  0  0  0  0  0  0  0
  1  2  1  0
  2  3  2  0
  2  4  1  0
  4  5  2  0
  5  6  1  0
  6  7  1  0
  7  8  1  0
  3  9  1  0
  6  9  2  0
  5 10  1  0
  8 11  2  0
 10 11  1  0
M  END
$$$$

     RDKit          3D

 11 11  0  0  0  0  0  0  0  0999 V2000
  138.7092  151.1474  142.6270 C   0  0  0  0  0  0  0  0  0  0  0  0
  138.5252  151.9373  143.5111 C   0  0  0  0  0  0  0  0  0  0  0  0
  137.3814  151.6573  144.3961 C   0  0  0  0  0  0  0  0  0  0  0  0
  139.7031  151.1128  141.6105 C   0  0  0  0  0  0  0  0  0  0  0  0
  136.7531  152.5760  145.3055 C   0  0  0  0  0  0  0  0  0  0  0  0
  139.6217  150.4559  140.3336 C   0  0  0  0  0  0  0  0  0  0  0  0
  138.4482  149.6024  140.4479 C   0  0  0  0  0  0  0  0  0  0  0  0
  135.4545  152.3905  145.7642 C   0  0  0  0  0  0  0  0  0  0  0  0
  137.7393  150.1258  142.1790 C   0  0  0  0  0  0  0  0  0  0  0  0
  140.6487  150.5555  139.4463 C   0  0  0  0  0  0  0  0  0  0  0  0
  137.5300  149.4641  141.1552 C   0  0  0  0  0  0  0  0  0  0  0  0
  1  2  1  0
  2  3  2  3
  1  4  1  0
  3  5  1  0
  4  6  2  0
  6  7  1  0
  5  8  1  0
  1  9  2  0
  6 10  1  0
  7 11  2  0
  9 11  1  0
M  END
$$$$

     RDKit          3D

 11 12  0  0  0  0  0  0  0  0999 V2000
  139.2623  151.0928  142.4045 C   0  0  0  0  0  0  0  0  0  0  0  0
  138.8616  152.1314  142.9035 C   0  0  0  0  0  0  0  0  0  0  0  0
  137.9123  151.7989  143.7814 C   0  0  0  0  0  0  0  0  0  0  0  0
  138.7650  149.7966  142.5256 C   0  0  0  0  0  0  0  0  0  0  0  0
  137.2962  152.8725  144.6390 C   0  0  0  0  0  0  0  0  0  0  0  0
  136.2286  152.7753  145.1613 C   0  0  0  0  0  0  0  0  0  0  0  0
  137.0900  150.6199  144.2516 C   0  0  0  0  0  0  0  0  0  0  0  0
  135.6243  151.6888  145.4655 C   0  0  0  0  0  0  0  0  0  0  0  0
  134.4775  151.5230  146.3212 C   0  0  0  0  0  0  0  0  0  0  0  0
  137.7101  149.6888  143.4961 C   0  0  0  0  0  0  0  0  0  0  0  0
  136.0719  150.4386  145.0072 C   0  0  0  0  0  0  0  0  0  0  0  0
  1  2  1  0
  2  3  2  0
  1  4  2  0
  3  5  1  0
  5  6  2  0
  3  7  1  0
  6  8  1  0
  8  9  1  0
  4 10  1  0
  7 10  2  0
  7 11  1  0
  8 11  2  0
M  END
$$$$

     RDKit          3D

 11 11  0  0  0  0  0  0  0  0999 V2000
  138.7247  151.5764  143.3183 C   0  0  0  0  0  0  0  0  0  0  0  0
  137.9184  152.3259  143.7535 C   0  0  0  0  0  0  0  0  0  0  0  0
  136.7531  151.7836  144.4567 C   0  0  0  0  0  0  0  0  0  0  0  0
  136.8362  150.4414  144.7132 C   0  0  0  0  0  0  0  0  0  0  0  0
  138.7265  150.3748  143.0129 C   0  0  0  0  0  0  0  0  0  0  0  0
  139.6213  149.6149  142.1899 C   0  0  0  0  0  0  0  0  0  0  0  0
  135.8497  152.6994  145.2001 C   0  0  0  0  0  0  0  0  0  0  0  0
  137.6363  149.7174  143.8827 C   0  0  0  0  0  0  0  0  0  0  0  0
  134.6653  152.1707  145.7817 C   0  0  0  0  0  0  0  0  0  0  0  0
  139.4760  149.9642  140.7687 C   0  0  0  0  0  0  0  0  0  0  0  0
  140.3330  150.3183  140.1476 C   0  0  0  0  0  0  0  0  0  0  0  0
  1  2  1  0
  2  3  2  0
  3  4  1  0
  1  5  2  0
  5  6  1  0
  3  7  1  0
  4  8  2  0
  5  8  1  0
  7  9  1  0
  6 10  1  0
 10 11  1  0
M  END
$$$$

     RDKit          3D

 11 12  0  0  0  0  0  0  0  0999 V2000
  138.7247  151.5764  143.3183 C   0  0  0  0  0  0  0  0  0  0  0  0
  137.9184  152.3259  143.7535 C   0  0  0  0  0  0  0  0  0  0  0  0
  136.7531  151.7836  144.4567 C   0  0  0  0  0  0  0  0  0  0  0  0
  136.8362  150.4414  144.7132 C   0  0  0  0  0  0  0  0  0  0  0  0
  135.7194  152.4649  144.9810 C   0  0  0  0  0  0  0  0  0  0  0  0
  138.5080  150.1689  143.2471 C   0  0  0  0  0  0  0  0  0  0  0  0
  134.7225  151.9501  145.5715 C   0  0  0  0  0  0  0  0  0  0  0  0
  139.3174  149.2253  142.5629 C   0  0  0  0  0  0  0  0  0  0  0  0
  135.8132  150.0943  145.6296 C   0  0  0  0  0  0  0  0  0  0  0  0
  134.7324  150.7578  146.0474 C   0  0  0  0  0  0  0  0  0  0  0  0
  137.5509  149.6106  144.1419 N   0  0  0  0  0  0  0  0  0  0  0  0
  1  2  1  0
  2  3  2  0
  3  4  1  0
  3  5  1  0
  1  6  2  0
  5  7  2  0
  6  8  1  0
  4  9  1  0
  7 10  1  0
  9 10  2  0
  4 11  2  0
  6 11  1  0
M  END
$$$$

     RDKit          3D

 11 11  0  0  0  0  0  0  0  0999 V2000
  138.7247  151.5764  143.3183 C   0  0  0  0  0  0  0  0  0  0  0  0
  137.9184  152.3259  143.7535 C   0  0  0  0  0  0  0  0  0  0  0  0
  136.7531  151.7836  144.4567 C   0  0  0  0  0  0  0  0  0  0  0  0
  136.8362  150.4414  144.7132 C   0  0  0  0  0  0  0  0  0  0  0  0
  138.7265  150.3748  143.0129 C   0  0  0  0  0  0  0  0  0  0  0  0
  139.6213  149.6149  142.1899 C   0  0  0  0  0  0  0  0  0  0  0  0
  139.7409  150.2983  140.9082 C   0  0  0  0  0  0  0  0  0  0  0  0
  137.7193  149.6243  143.8410 C   0  0  0  0  0  0  0  0  0  0  0  0
  140.2152  149.5788  139.7246 C   0  0  0  0  0  0  0  0  0  0  0  0
  140.5751  150.4180  138.6418 C   0  0  0  0  0  0  0  0  0  0  0  0
  135.5556  152.5458  145.0739 C   0  0  0  0  0  0  0  0  0  0  0  0
  1  2  1  0
  2  3  2  0
  3  4  1  0
  1  5  2  0
  5  6  1  0
  6  7  1  0
  4  8  2  0
  5  8  1  0
  7  9  1  0
  9 10  1  0
  3 11  1  0
M  END
$$$$

     RDKit          3D

 11 12  0  0  0  0  0  0  0  0999 V2000
  139.2623  151.0928  142.4045 C   0  0  0  0  0  0  0  0  0  0  0  0
  138.8616  152.1314  142.9035 C   0  0  0  0  0  0  0  0  0  0  0  0
  137.7829  151.8931  143.8930 C   0  0  0  0  0  0  0  0  0  0  0  0
  138.6299  149.7790  142.4971 C   0  0  0  0  0  0  0  0  0  0  0  0
  137.3048  153.0079  144.6642 C   0  0  0  0  0  0  0  0  0  0  0  0
  136.0063  152.9003  145.3273 C   0  0  0  0  0  0  0  0  0  0  0  0
  135.3554  151.6773  145.1752 C   0  0  0  0  0  0  0  0  0  0  0  0
  137.2298  150.4596  143.8948 C   0  0  0  0  0  0  0  0  0  0  0  0
  134.1956  151.5506  145.8929 C   0  0  0  0  0  0  0  0  0  0  0  0
  136.0791  150.4073  144.9646 C   0  0  0  0  0  0  0  0  0  0  0  0
  137.8222  149.5188  143.3021 N   0  0  0  0  0  0  0  0  0  0  0  0
  1  2  1  0
  2  3  2  0
  1  4  2  0
  3  5  1  0
  5  6  2  0
  6  7  1  0
  3  8  1  0
  7  9  1  0
  7 10  2  0
  8 10  1  0
  4 11  1  0
  8 11  2  0
M  END
$$$$

     RDKit          3D

 11 12  0  0  0  0  0  0  0  0999 V2000
  140.8778  150.5419  139.7337 Cl  0  0  0  0  0  0  0  0  0  0  0  0
  138.9614  150.5329  140.4448 C   0  0  0  0  0  0  0  0  0  0  0  0
  138.2154  149.5089  139.9489 C   0  0  0  0  0  0  0  0  0  0  0  0
  139.1215  151.1800  141.6231 C   0  0  0  0  0  0  0  0  0  0  0  0
  138.0837  150.9004  142.5999 C   0  0  0  0  0  0  0  0  0  0  0  0
  137.1000  149.9215  142.1731 C   0  0  0  0  0  0  0  0  0  0  0  0
  135.9904  149.8133  143.1128 C   0  0  0  0  0  0  0  0  0  0  0  0
  136.2020  150.8803  144.1689 C   0  0  0  0  0  0  0  0  0  0  0  0
  138.1207  151.4578  143.7958 C   0  0  0  0  0  0  0  0  0  0  0  0
  137.1637  151.3980  144.6800 C   0  0  0  0  0  0  0  0  0  0  0  0
  137.0754  149.3812  140.9139 C   0  0  0  0  0  0  0  0  0  0  0  0
  1  2  1  0
  2  3  2  0
  2  4  1  0
  4  5  2  0
  5  6  1  0
  6  7  1  0
  7  8  1  0
  5  9  1  0
  8 10  2  0
  9 10  2  0
  3 11  1  0
  6 11  2  0
M  END
$$$$

     RDKit          3D

 11 11  0  0  0  0  0  0  0  0999 V2000
  138.7092  151.1474  142.6270 C   0  0  0  0  0  0  0  0  0  0  0  0
  138.5252  151.9373  143.5111 C   0  0  0  0  0  0  0  0  0  0  0  0
  137.4746  151.6736  144.4636 C   0  0  0  0  0  0  0  0  0  0  0  0
  138.0112  149.8671  142.4730 C   0  0  0  0  0  0  0  0  0  0  0  0
  136.7207  150.4820  144.2961 C   0  0  0  0  0  0  0  0  0  0  0  0
  137.0165  149.5954  143.3275 C   0  0  0  0  0  0  0  0  0  0  0  0
  137.1308  152.6404  145.4946 C   0  0  0  0  0  0  0  0  0  0  0  0
  135.7763  152.6714  145.9478 C   0  0  0  0  0  0  0  0  0  0  0  0
  135.2601  153.7287  146.5598 C   0  0  0  0  0  0  0  0  0  0  0  0
  139.7804  151.3636  141.5531 C   0  0  0  0  0  0  0  0  0  0  0  0
  139.8339  150.5035  140.4188 C   0  0  0  0  0  0  0  0  0  0  0  0
  1  2  2  0
  2  3  1  0
  1  4  1  0
  3  5  2  0
  4  6  2  0
  5  6  1  0
  3  7  1  0
  7  8  1  0
  8  9  1  0
  1 10  1  0
 10 11  1  0
M  END
$$$$

     RDKit          3D

 11 12  0  0  0  0  0  0  0  0999 V2000
  140.8778  150.5419  139.7337 Cl  0  0  0  0  0  0  0  0  0  0  0  0
  138.9614  150.5329  140.4448 C   0  0  0  0  0  0  0  0  0  0  0  0
  138.2154  149.5089  139.9489 C   0  0  0  0  0  0  0  0  0  0  0  0
  139.1215  151.1800  141.6231 C   0  0  0  0  0  0  0  0  0  0  0  0
  138.0837  150.9004  142.5999 C   0  0  0  0  0  0  0  0  0  0  0  0
  138.0992  151.4525  143.9498 C   0  0  0  0  0  0  0  0  0  0  0  0
  137.0455  149.9998  142.1237 C   0  0  0  0  0  0  0  0  0  0  0  0
  135.8928  149.9571  142.9924 C   0  0  0  0  0  0  0  0  0  0  0  0
  136.9501  149.4766  140.7227 C   0  0  0  0  0  0  0  0  0  0  0  0
  136.9920  151.3724  144.6738 C   0  0  0  0  0  0  0  0  0  0  0  0
  136.0209  150.7176  144.2419 C   0  0  0  0  0  0  0  0  0  0  0  0
  1  2  1  0
  2  3  2  0
  2  4  1  0
  4  5  2  0
  5  6  1  0
  5  7  1  0
  7  8  1  0
  3  9  1  0
  7  9  2  0
  6 10  2  0
  8 11  2  0
 10 11  1  0
M  END
$$$$

     RDKit          3D

 11 12  0  0  0  0  0  0  0  0999 V2000
  140.8778  150.5419  139.7337 Cl  0  0  0  0  0  0  0  0  0  0  0  0
  138.9614  150.5329  140.4448 C   0  0  0  0  0  0  0  0  0  0  0  0
  138.2154  149.5089  139.9489 C   0  0  0  0  0  0  0  0  0  0  0  0
  139.1215  151.1800  141.6231 C   0  0  0  0  0  0  0  0  0  0  0  0
  138.4409  150.9839  142.4827 C   0  0  0  0  0  0  0  0  0  0  0  0
  137.3041  149.9252  142.2693 C   0  0  0  0  0  0  0  0  0  0  0  0
  136.3910  149.8005  143.3483 C   0  0  0  0  0  0  0  0  0  0  0  0
  136.8248  150.0544  144.6651 C   0  0  0  0  0  0  0  0  0  0  0  0
  138.0404  150.8947  144.7848 C   0  0  0  0  0  0  0  0  0  0  0  0
  137.1171  149.4466  140.9843 C   0  0  0  0  0  0  0  0  0  0  0  0
  138.6113  151.6252  143.8318 C   0  0  0  0  0  0  0  0  0  0  0  0
  1  2  1  0
  2  3  2  0
  2  4  1  0
  4  5  2  0
  5  6  1  0
  6  7  1  0
  7  8  1  0
  8  9  1  0
  3 10  1  0
  6 10  2  0
  5 11  1  0
  9 11  2  0
M  END
$$$$

     RDKit          3D

 11 12  0  0  0  0  0  0  0  0999 V2000
  139.2623  151.0928  142.4045 C   0  0  0  0  0  0  0  0  0  0  0  0
  138.8616  152.1314  142.9035 C   0  0  0  0  0  0  0  0  0  0  0  0
  137.9123  151.7989  143.7814 C   0  0  0  0  0  0  0  0  0  0  0  0
  138.7650  149.7966  142.5256 C   0  0  0  0  0  0  0  0  0  0  0  0
  137.2962  152.8725  144.6390 C   0  0  0  0  0  0  0  0  0  0  0  0
  136.2286  152.7753  145.1613 C   0  0  0  0  0  0  0  0  0  0  0  0
  137.0900  150.6199  144.2516 C   0  0  0  0  0  0  0  0  0  0  0  0
  135.6243  151.6888  145.4655 C   0  0  0  0  0  0  0  0  0  0  0  0
  136.0611  150.5740  145.0483 C   0  0  0  0  0  0  0  0  0  0  0  0
  134.2495  151.6413  146.3611 Cl  0  0  0  0  0  0  0  0  0  0  0  0
  137.7295  149.5233  143.5439 N   0  0  0  0  0  0  0  0  0  0  0  0
  1  2  1  0
  2  3  2  0
  1  4  2  0
  3  5  1  0
  5  6  2  0
  3  7  1  0
  6  8  1  0
  7  9  1  0
  8  9  2  0
  8 10  1  0
  4 11  1  0
  7 11  2  0
M  END
$$$$

     RDKit          3D

 11 12  0  0  0  0  0  0  0  0999 V2000
  138.9699  151.3138  142.5680 C   0  0  0  0  0  0  0  0  0  0  0  0
  138.6028  152.0884  143.2652 C   0  0  0  0  0  0  0  0  0  0  0  0
  137.6377  151.6909  144.0815 C   0  0  0  0  0  0  0  0  0  0  0  0
  137.2743  150.3458  144.1256 C   0  0  0  0  0  0  0  0  0  0  0  0
  136.8350  152.5464  145.0564 C   0  0  0  0  0  0  0  0  0  0  0  0
  138.5609  149.9198  142.4151 C   0  0  0  0  0  0  0  0  0  0  0  0
  135.6546  152.0666  145.5934 C   0  0  0  0  0  0  0  0  0  0  0  0
  136.3461  149.9676  145.1877 C   0  0  0  0  0  0  0  0  0  0  0  0
  134.7259  153.0240  146.1167 C   0  0  0  0  0  0  0  0  0  0  0  0
  135.3792  150.8106  145.7168 C   0  0  0  0  0  0  0  0  0  0  0  0
  137.8089  149.4035  143.3660 N   0  0  0  0  0  0  0  0  0  0  0  0
  1  2  1  0
  2  3  2  0
  3  4  1  0
  3  5  1  0
  1  6  2  0
  5  7  1  0
  4  8  1  0
  7  9  1  0
  7 10  2  0
  8 10  1  0
  4 11  2  0
  6 11  1  0
M  END
$$$$

     RDKit          3D

 11 12  0  0  0  0  0  0  0  0999 V2000
  138.9699  151.3138  142.5680 C   0  0  0  0  0  0  0  0  0  0  0  0
  138.6028  152.0884  143.2652 C   0  0  0  0  0  0  0  0  0  0  0  0
  137.4868  151.7382  144.1979 C   0  0  0  0  0  0  0  0  0  0  0  0
  139.9964  151.3955  141.4280 C   0  0  0  0  0  0  0  0  0  0  0  0
  138.3631  149.9235  142.4596 C   0  0  0  0  0  0  0  0  0  0  0  0
  137.0530  150.4422  144.0790 C   0  0  0  0  0  0  0  0  0  0  0  0
  137.4953  149.5561  143.3655 C   0  0  0  0  0  0  0  0  0  0  0  0
  139.9758  150.6011  140.2702 C   0  0  0  0  0  0  0  0  0  0  0  0
  139.2054  149.5215  140.1239 C   0  0  0  0  0  0  0  0  0  0  0  0
  138.4422  149.2902  141.3159 N   0  0  0  0  0  0  0  0  0  0  0  0
  136.9495  152.8636  145.2533 Cl  0  0  0  0  0  0  0  0  0  0  0  0
  1  2  1  0
  2  3  2  0
  1  4  1  0
  1  5  2  0
  3  6  1  0
  5  7  1  0
  6  7  2  0
  4  8  2  0
  8  9  1  0
  5 10  1  0
  9 10  2  0
  3 11  1  0
M  END
$$$$

     RDKit          3D

 11 11  0  0  0  0  0  0  0  0999 V2000
  140.8778  150.5419  139.7337 Cl  0  0  0  0  0  0  0  0  0  0  0  0
  138.9614  150.5329  140.4448 C   0  0  0  0  0  0  0  0  0  0  0  0
  138.2154  149.5089  139.9489 C   0  0  0  0  0  0  0  0  0  0  0  0
  138.9058  151.3604  141.4410 C   0  0  0  0  0  0  0  0  0  0  0  0
  137.7037  151.1653  142.2004 C   0  0  0  0  0  0  0  0  0  0  0  0
  137.6067  151.8428  143.5371 C   0  0  0  0  0  0  0  0  0  0  0  0
  136.9199  150.1333  141.6274 C   0  0  0  0  0  0  0  0  0  0  0  0
  136.4562  151.5700  144.3075 C   0  0  0  0  0  0  0  0  0  0  0  0
  137.0033  149.4452  140.5308 C   0  0  0  0  0  0  0  0  0  0  0  0
  135.7990  150.5700  144.4271 C   0  0  0  0  0  0  0  0  0  0  0  0
  136.0073  152.7077  145.2072 C   0  0  0  0  0  0  0  0  0  0  0  0
  1  2  1  0
  2  3  1  0
  2  4  2  0
  4  5  1  0
  5  6  1  0
  5  7  2  0
  6  8  1  0
  3  9  2  0
  7  9  1  0
  8 10  2  0
  8 11  1  0
M  END
$$$$

     RDKit          3D

 11 12  0  0  0  0  0  0  0  0999 V2000
  138.9699  151.3138  142.5680 C   0  0  0  0  0  0  0  0  0  0  0  0
  138.6028  152.0884  143.2652 C   0  0  0  0  0  0  0  0  0  0  0  0
  137.6377  151.6909  144.0815 C   0  0  0  0  0  0  0  0  0  0  0  0
  137.2743  150.3458  144.1256 C   0  0  0  0  0  0  0  0  0  0  0  0
  136.8350  152.5464  145.0564 C   0  0  0  0  0  0  0  0  0  0  0  0
  138.5609  149.9198  142.4151 C   0  0  0  0  0  0  0  0  0  0  0  0
  135.6546  152.0666  145.5934 C   0  0  0  0  0  0  0  0  0  0  0  0
  136.3461  149.9676  145.1877 C   0  0  0  0  0  0  0  0  0  0  0  0
  137.9143  149.6294  143.2836 C   0  0  0  0  0  0  0  0  0  0  0  0
  135.7369  150.9279  145.8784 C   0  0  0  0  0  0  0  0  0  0  0  0
  134.7458  153.0874  146.0441 C   0  0  0  0  0  0  0  0  0  0  0  0
  1  2  1  0
  2  3  2  0
  3  4  1  0
  3  5  1  0
  1  6  2  0
  5  7  1  0
  4  8  1  0
  4  9  2  0
  6  9  1  0
  7 10  1  0
  8 10  2  0
  7 11  1  0
M  END
$$$$

     RDKit          3D

 11 12  0  0  0  0  0  0  0  0999 V2000
  140.8778  150.5419  139.7337 Cl  0  0  0  0  0  0  0  0  0  0  0  0
  138.9614  150.5329  140.4448 C   0  0  0  0  0  0  0  0  0  0  0  0
  138.2154  149.5089  139.9489 C   0  0  0  0  0  0  0  0  0  0  0  0
  139.1215  151.1800  141.6231 C   0  0  0  0  0  0  0  0  0  0  0  0
  138.0837  150.9004  142.5999 C   0  0  0  0  0  0  0  0  0  0  0  0
  137.1000  149.9215  142.1731 C   0  0  0  0  0  0  0  0  0  0  0  0
  135.9904  149.8133  143.1128 C   0  0  0  0  0  0  0  0  0  0  0  0
  136.2020  150.8803  144.1689 C   0  0  0  0  0  0  0  0  0  0  0  0
  137.0127  149.4088  140.8396 C   0  0  0  0  0  0  0  0  0  0  0  0
  138.1150  151.3765  143.9408 C   0  0  0  0  0  0  0  0  0  0  0  0
  137.1570  151.3558  144.7511 C   0  0  0  0  0  0  0  0  0  0  0  0
  1  2  1  0
  2  3  2  0
  2  4  1  0
  4  5  2  0
  5  6  1  0
  6  7  1  0
  7  8  1  0
  3  9  1  0
  6  9  2  0
  5 10  1  0
  8 11  1  0
 10 11  1  0
M  END
$$$$

     RDKit          3D

 11 11  0  0  0  0  0  0  0  0999 V2000
  138.7247  151.5764  143.3183 C   0  0  0  0  0  0  0  0  0  0  0  0
  137.9184  152.3259  143.7535 C   0  0  0  0  0  0  0  0  0  0  0  0
  136.7531  151.7836  144.4567 C   0  0  0  0  0  0  0  0  0  0  0  0
  136.8362  150.4414  144.7132 C   0  0  0  0  0  0  0  0  0  0  0  0
  138.7265  150.3748  143.0129 C   0  0  0  0  0  0  0  0  0  0  0  0
  139.6213  149.6149  142.1899 C   0  0  0  0  0  0  0  0  0  0  0  0
  135.8497  152.6994  145.2001 C   0  0  0  0  0  0  0  0  0  0  0  0
  137.6363  149.7174  143.8827 C   0  0  0  0  0  0  0  0  0  0  0  0
  134.6653  152.1707  145.7817 C   0  0  0  0  0  0  0  0  0  0  0  0
  139.4760  149.9642  140.7687 C   0  0  0  0  0  0  0  0  0  0  0  0
  140.3330  150.3183  140.1476 C   0  0  0  0  0  0  0  0  0  0  0  0
  1  2  1  0
  2  3  2  0
  3  4  1  0
  1  5  2  0
  5  6  1  0
  3  7  1  0
  4  8  2  0
  5  8  1  0
  7  9  1  0
  6 10  1  0
 10 11  2  0
M  END
$$$$

     RDKit          3D

 11 11  0  0  0  0  0  0  0  0999 V2000
  140.8778  150.5419  139.7337 Cl  0  0  0  0  0  0  0  0  0  0  0  0
  138.9614  150.5329  140.4448 C   0  0  0  0  0  0  0  0  0  0  0  0
  138.2154  149.5089  139.9489 C   0  0  0  0  0  0  0  0  0  0  0  0
  138.7771  151.4412  141.4365 C   0  0  0  0  0  0  0  0  0  0  0  0
  137.6505  151.2689  142.2281 C   0  0  0  0  0  0  0  0  0  0  0  0
  138.3890  148.8791  138.6827 C   0  0  0  0  0  0  0  0  0  0  0  0
  136.7544  150.1973  141.8645 C   0  0  0  0  0  0  0  0  0  0  0  0
  136.8099  149.4684  140.6724 C   0  0  0  0  0  0  0  0  0  0  0  0
  137.3610  152.0497  143.4202 C   0  0  0  0  0  0  0  0  0  0  0  0
  136.1911  151.8278  144.1492 C   0  0  0  0  0  0  0  0  0  0  0  0
  138.3543  152.8969  143.9542 C   0  0  0  0  0  0  0  0  0  0  0  0
  1  2  1  0
  2  3  2  0
  2  4  1  0
  4  5  2  0
  3  6  1  0
  5  7  1  0
  3  8  1  0
  7  8  2  0
  5  9  1  0
  9 10  1  0
  9 11  2  0
M  END
$$$$

     RDKit          3D

 11 11  0  0  0  0  0  0  0  0999 V2000
  140.8778  150.5419  139.7337 Cl  0  0  0  0  0  0  0  0  0  0  0  0
  138.9614  150.5329  140.4448 C   0  0  0  0  0  0  0  0  0  0  0  0
  138.2154  149.5089  139.9489 C   0  0  0  0  0  0  0  0  0  0  0  0
  138.7771  151.4412  141.4365 C   0  0  0  0  0  0  0  0  0  0  0  0
  136.8868  149.4565  140.5916 C   0  0  0  0  0  0  0  0  0  0  0  0
  137.6251  151.1479  142.2653 C   0  0  0  0  0  0  0  0  0  0  0  0
  137.4362  151.8649  143.4953 C   0  0  0  0  0  0  0  0  0  0  0  0
  135.8751  148.6846  140.0404 C   0  0  0  0  0  0  0  0  0  0  0  0
  138.3363  152.6463  144.1560 C   0  0  0  0  0  0  0  0  0  0  0  0
  136.6143  150.3343  141.7082 C   0  0  0  0  0  0  0  0  0  0  0  0
  136.5975  151.4580  144.3481 O   0  0  0  0  0  0  0  0  0  0  0  0
  1  2  1  0
  2  3  2  0
  2  4  1  0
  3  5  1  0
  4  6  2  0
  6  7  1  0
  5  8  1  0
  7  9  1  0
  5 10  2  0
  6 10  1  0
  7 11  2  0
M  END
$$$$

     RDKit          3D

 11 11  0  0  0  0  0  0  0  0999 V2000
  138.7092  151.1474  142.6270 C   0  0  0  0  0  0  0  0  0  0  0  0
  138.5252  151.9373  143.5111 C   0  0  0  0  0  0  0  0  0  0  0  0
  137.3814  151.6573  144.3961 C   0  0  0  0  0  0  0  0  0  0  0  0
  139.7031  151.1128  141.6105 C   0  0  0  0  0  0  0  0  0  0  0  0
  136.7531  152.5760  145.3055 C   0  0  0  0  0  0  0  0  0  0  0  0
  139.6217  150.4559  140.3336 C   0  0  0  0  0  0  0  0  0  0  0  0
  138.4482  149.6024  140.4479 C   0  0  0  0  0  0  0  0  0  0  0  0
  135.4545  152.3905  145.7642 C   0  0  0  0  0  0  0  0  0  0  0  0
  137.7393  150.1258  142.1790 C   0  0  0  0  0  0  0  0  0  0  0  0
  138.2606  148.8593  139.0957 C   0  0  0  0  0  0  0  0  0  0  0  0
  137.4757  149.5711  141.3155 C   0  0  0  0  0  0  0  0  0  0  0  0
  1  2  1  0
  2  3  2  3
  1  4  1  0
  3  5  1  0
  4  6  2  0
  6  7  1  0
  5  8  1  0
  1  9  2  0
  7 10  1  0
  7 11  2  0
  9 11  1  0
M  END
$$$$

     RDKit          3D

 11 12  0  0  0  0  0  0  0  0999 V2000
  138.9699  151.3138  142.5680 C   0  0  0  0  0  0  0  0  0  0  0  0
  138.6028  152.0884  143.2652 C   0  0  0  0  0  0  0  0  0  0  0  0
  137.6377  151.6909  144.0815 C   0  0  0  0  0  0  0  0  0  0  0  0
  137.2743  150.3458  144.1256 C   0  0  0  0  0  0  0  0  0  0  0  0
  136.8350  152.5464  145.0564 C   0  0  0  0  0  0  0  0  0  0  0  0
  138.5609  149.9198  142.4151 C   0  0  0  0  0  0  0  0  0  0  0  0
  135.6546  152.0666  145.5934 C   0  0  0  0  0  0  0  0  0  0  0  0
  136.3461  149.9676  145.1877 C   0  0  0  0  0  0  0  0  0  0  0  0
  137.9143  149.6294  143.2836 C   0  0  0  0  0  0  0  0  0  0  0  0
  135.7369  150.9279  145.8784 C   0  0  0  0  0  0  0  0  0  0  0  0
  134.7458  153.0874  146.0441 C   0  0  0  0  0  0  0  0  0  0  0  0
  1  2  1  0
  2  3  2  0
  3  4  1  0
  3  5  1  0
  1  6  2  0
  5  7  1  0
  4  8  1  0
  4  9  2  0
  6  9  1  0
  7 10  1  0
  8 10  2  0
  7 11  2  0
M  END
$$$$

     RDKit          3D

 11 11  0  0  0  0  0  0  0  0999 V2000
  140.8778  150.5419  139.7337 Cl  0  0  0  0  0  0  0  0  0  0  0  0
  138.9614  150.5329  140.4448 C   0  0  0  0  0  0  0  0  0  0  0  0
  138.2154  149.5089  139.9489 C   0  0  0  0  0  0  0  0  0  0  0  0
  138.7771  151.4412  141.4365 C   0  0  0  0  0  0  0  0  0  0  0  0
  136.8868  149.4565  140.5916 C   0  0  0  0  0  0  0  0  0  0  0  0
  137.6055  151.3282  142.1717 C   0  0  0  0  0  0  0  0  0  0  0  0
  137.3370  152.1254  143.3103 C   0  0  0  0  0  0  0  0  0  0  0  0
  136.3577  151.6178  144.2474 C   0  0  0  0  0  0  0  0  0  0  0  0
  136.3071  152.3392  145.4098 C   0  0  0  0  0  0  0  0  0  0  0  0
  135.0229  152.5650  146.0898 C   0  0  0  0  0  0  0  0  0  0  0  0
  136.6464  150.4223  141.6756 C   0  0  0  0  0  0  0  0  0  0  0  0
  1  2  1  0
  2  3  2  0
  2  4  1  0
  3  5  1  0
  4  6  2  0
  6  7  1  0
  7  8  2  3
  8  9  1  0
  9 10  1  0
  5 11  2  0
  6 11  1  0
M  END
$$$$

     RDKit          3D

 11 11  0  0  0  0  0  0  0  0999 V2000
  139.2623  151.0928  142.4045 C   0  0  0  0  0  0  0  0  0  0  0  0
  138.8616  152.1314  142.9035 C   0  0  0  0  0  0  0  0  0  0  0  0
  137.9123  151.7989  143.7814 C   0  0  0  0  0  0  0  0  0  0  0  0
  138.8307  150.4000  141.6050 C   0  0  0  0  0  0  0  0  0  0  0  0
  137.2917  150.4868  143.7063 C   0  0  0  0  0  0  0  0  0  0  0  0
  139.3794  149.8759  140.3266 C   0  0  0  0  0  0  0  0  0  0  0  0
  140.5658  149.7114  139.9835 C   0  0  0  0  0  0  0  0  0  0  0  0
  138.3604  149.6828  139.3749 C   0  0  0  0  0  0  0  0  0  0  0  0
  137.1258  149.2675  139.5684 C   0  0  0  0  0  0  0  0  0  0  0  0
  136.3419  150.1298  144.6209 C   0  0  0  0  0  0  0  0  0  0  0  0
  137.5677  149.9318  142.4724 C   0  0  0  0  0  0  0  0  0  0  0  0
  1  2  1  0
  2  3  2  0
  1  4  2  0
  3  5  1  0
  4  6  1  0
  6  7  1  0
  6  8  2  3
  8  9  1  0
  5 10  1  0
  4 11  1  0
  5 11  2  0
M  END
$$$$

     RDKit          3D

 11 12  0  0  0  0  0  0  0  0999 V2000
  138.9699  151.3138  142.5680 C   0  0  0  0  0  0  0  0  0  0  0  0
  138.6028  152.0884  143.2652 C   0  0  0  0  0  0  0  0  0  0  0  0
  137.4868  151.7382  144.1979 C   0  0  0  0  0  0  0  0  0  0  0  0
  139.9964  151.3955  141.4280 C   0  0  0  0  0  0  0  0  0  0  0  0
  137.1558  150.3526  144.0264 C   0  0  0  0  0  0  0  0  0  0  0  0
  139.8257  150.4770  140.3147 C   0  0  0  0  0  0  0  0  0  0  0  0
  138.8512  149.5063  140.5932 C   0  0  0  0  0  0  0  0  0  0  0  0
  138.3038  149.9668  142.1890 C   0  0  0  0  0  0  0  0  0  0  0  0
  136.6776  152.3989  145.1422 C   0  0  0  0  0  0  0  0  0  0  0  0
  137.4662  149.4167  143.0946 C   0  0  0  0  0  0  0  0  0  0  0  0
  137.0316  153.7607  145.4318 C   0  0  0  0  0  0  0  0  0  0  0  0
  1  2  1  0
  2  3  2  0
  1  4  1  0
  3  5  1  0
  4  6  2  0
  6  7  1  0
  1  8  2  0
  7  8  1  0
  3  9  1  0
  5 10  2  0
  8 10  1  0
  9 11  2  0
M  END
$$$$

     RDKit          3D

 11 12  0  0  0  0  0  0  0  0999 V2000
  138.9699  151.3138  142.5680 C   0  0  0  0  0  0  0  0  0  0  0  0
  138.6028  152.0884  143.2652 C   0  0  0  0  0  0  0  0  0  0  0  0
  137.6377  151.6909  144.0815 C   0  0  0  0  0  0  0  0  0  0  0  0
  137.2743  150.3458  144.1256 C   0  0  0  0  0  0  0  0  0  0  0  0
  138.6285  149.8576  142.4561 C   0  0  0  0  0  0  0  0  0  0  0  0
  136.6700  152.4504  145.1379 C   0  0  0  0  0  0  0  0  0  0  0  0
  135.6331  151.8358  145.6654 C   0  0  0  0  0  0  0  0  0  0  0  0
  136.3437  149.9435  145.1557 C   0  0  0  0  0  0  0  0  0  0  0  0
  135.6068  150.6135  145.9138 C   0  0  0  0  0  0  0  0  0  0  0  0
  134.6468  152.8848  146.1929 C   0  0  0  0  0  0  0  0  0  0  0  0
  137.8127  149.5100  143.3178 N   0  0  0  0  0  0  0  0  0  0  0  0
  1  2  1  0
  2  3  2  0
  3  4  1  0
  1  5  2  0
  3  6  1  0
  6  7  1  0
  4  8  1  0
  7  9  1  0
  8  9  2  0
  7 10  2  0
  4 11  2  0
  5 11  1  0
M  END
$$$$

     RDKit          3D

 11 11  0  0  0  0  0  0  0  0999 V2000
  138.7247  151.5764  143.3183 C   0  0  0  0  0  0  0  0  0  0  0  0
  137.9184  152.3259  143.7535 C   0  0  0  0  0  0  0  0  0  0  0  0
  136.7531  151.7836  144.4567 C   0  0  0  0  0  0  0  0  0  0  0  0
  136.8362  150.4414  144.7132 C   0  0  0  0  0  0  0  0  0  0  0  0
  138.7265  150.3748  143.0129 C   0  0  0  0  0  0  0  0  0  0  0  0
  139.6213  149.6149  142.1899 C   0  0  0  0  0  0  0  0  0  0  0  0
  135.8497  152.6994  145.2001 C   0  0  0  0  0  0  0  0  0  0  0  0
  139.7759  150.3001  140.9125 C   0  0  0  0  0  0  0  0  0  0  0  0
  140.1993  149.5816  139.7365 C   0  0  0  0  0  0  0  0  0  0  0  0
  137.6472  149.6312  143.8397 C   0  0  0  0  0  0  0  0  0  0  0  0
  139.8292  150.2245  138.4174 C   0  0  0  0  0  0  0  0  0  0  0  0
  1  2  1  0
  2  3  2  0
  3  4  1  0
  1  5  2  0
  5  6  1  0
  3  7  1  0
  6  8  1  0
  8  9  1  0
  4 10  1  0
  5 10  1  0
  9 11  1  0
M  END
$$$$

     RDKit          3D

 11 11  0  0  0  0  0  0  0  0999 V2000
  138.7247  151.5764  143.3183 C   0  0  0  0  0  0  0  0  0  0  0  0
  137.9184  152.3259  143.7535 C   0  0  0  0  0  0  0  0  0  0  0  0
  136.7531  151.7836  144.4567 C   0  0  0  0  0  0  0  0  0  0  0  0
  138.5775  150.7791  142.3582 C   0  0  0  0  0  0  0  0  0  0  0  0
  137.2455  150.1175  142.4698 C   0  0  0  0  0  0  0  0  0  0  0  0
  136.7130  149.1947  141.6080 C   0  0  0  0  0  0  0  0  0  0  0  0
  136.3425  150.6844  143.5477 C   0  0  0  0  0  0  0  0  0  0  0  0
  135.8100  152.3858  145.2765 C   0  0  0  0  0  0  0  0  0  0  0  0
  134.8822  151.6626  145.8726 C   0  0  0  0  0  0  0  0  0  0  0  0
  136.3358  153.5010  145.5053 C   0  0  0  0  0  0  0  0  0  0  0  0
  139.5288  150.3913  141.3220 C   0  0  0  0  0  0  0  0  0  0  0  0
  1  2  1  0
  2  3  2  0
  1  4  2  0
  4  5  1  0
  5  6  1  0
  3  7  1  0
  5  7  2  0
  3  8  1  0
  8  9  1  0
  8 10  2  0
  4 11  1  0
M  END
$$$$

     RDKit          3D

 11 12  0  0  0  0  0  0  0  0999 V2000
  138.9699  151.3138  142.5680 C   0  0  0  0  0  0  0  0  0  0  0  0
  138.6028  152.0884  143.2652 C   0  0  0  0  0  0  0  0  0  0  0  0
  137.6377  151.6909  144.0815 C   0  0  0  0  0  0  0  0  0  0  0  0
  137.2743  150.3458  144.1256 C   0  0  0  0  0  0  0  0  0  0  0  0
  136.8350  152.5464  145.0564 C   0  0  0  0  0  0  0  0  0  0  0  0
  138.5609  149.9198  142.4151 C   0  0  0  0  0  0  0  0  0  0  0  0
  135.6546  152.0666  145.5934 C   0  0  0  0  0  0  0  0  0  0  0  0
  136.3461  149.9676  145.1877 C   0  0  0  0  0  0  0  0  0  0  0  0
  134.7259  153.0240  146.1167 C   0  0  0  0  0  0  0  0  0  0  0  0
  137.8471  149.5553  143.2543 C   0  0  0  0  0  0  0  0  0  0  0  0
  135.7397  150.6832  145.7511 C   0  0  0  0  0  0  0  0  0  0  0  0
  1  2  1  0
  2  3  2  0
  3  4  1  0
  3  5  1  0
  1  6  2  0
  5  7  1  0
  4  8  1  0
  7  9  1  0
  4 10  2  0
  6 10  1  0
  7 11  2  0
  8 11  2  0
M  END
$$$$

     RDKit          3D

 11 11  0  0  0  0  0  0  0  0999 V2000
  138.7092  151.1474  142.6270 C   0  0  0  0  0  0  0  0  0  0  0  0
  138.5252  151.9373  143.5111 C   0  0  0  0  0  0  0  0  0  0  0  0
  137.3814  151.6573  144.3961 C   0  0  0  0  0  0  0  0  0  0  0  0
  139.7031  151.1128  141.6105 C   0  0  0  0  0  0  0  0  0  0  0  0
  136.7531  152.5760  145.3055 C   0  0  0  0  0  0  0  0  0  0  0  0
  139.6217  150.4559  140.3336 C   0  0  0  0  0  0  0  0  0  0  0  0
  138.4482  149.6024  140.4479 C   0  0  0  0  0  0  0  0  0  0  0  0
  135.4545  152.3905  145.7642 C   0  0  0  0  0  0  0  0  0  0  0  0
  137.9197  148.9140  139.2713 C   0  0  0  0  0  0  0  0  0  0  0  0
  137.7558  150.1140  142.1846 C   0  0  0  0  0  0  0  0  0  0  0  0
  140.6547  150.4017  139.4888 C   0  0  0  0  0  0  0  0  0  0  0  0
  1  2  1  0
  2  3  2  3
  1  4  1  0
  3  5  1  0
  4  6  2  0
  6  7  1  0
  5  8  1  0
  7  9  1  0
  1 10  2  0
  7 10  1  0
  6 11  1  0
M  END
$$$$

     RDKit          3D

 11 12  0  0  0  0  0  0  0  0999 V2000
  138.7092  151.1474  142.6270 C   0  0  0  0  0  0  0  0  0  0  0  0
  138.5252  151.9373  143.5111 C   0  0  0  0  0  0  0  0  0  0  0  0
  137.3814  151.6573  144.3961 C   0  0  0  0  0  0  0  0  0  0  0  0
  139.7031  151.1128  141.6105 C   0  0  0  0  0  0  0  0  0  0  0  0
  136.7531  152.5760  145.3055 C   0  0  0  0  0  0  0  0  0  0  0  0
  139.6217  150.4559  140.3336 C   0  0  0  0  0  0  0  0  0  0  0  0
  138.4482  149.6024  140.4479 C   0  0  0  0  0  0  0  0  0  0  0  0
  137.8387  150.0397  142.3106 C   0  0  0  0  0  0  0  0  0  0  0  0
  136.8815  150.0782  143.5207 C   0  0  0  0  0  0  0  0  0  0  0  0
  140.8134  150.7270  139.5959 C   0  0  0  0  0  0  0  0  0  0  0  0
  137.5301  149.4245  141.3014 C   0  0  0  0  0  0  0  0  0  0  0  0
  1  2  1  0
  2  3  2  0
  1  4  1  0
  3  5  1  0
  4  6  2  0
  6  7  1  0
  1  8  2  0
  3  9  1  0
  8  9  1  0
  6 10  1  0
  7 11  2  0
  8 11  1  0
M  END
$$$$

     RDKit          3D

 11 12  0  0  0  0  0  0  0  0999 V2000
  139.2623  151.0928  142.4045 C   0  0  0  0  0  0  0  0  0  0  0  0
  138.8616  152.1314  142.9035 C   0  0  0  0  0  0  0  0  0  0  0  0
  137.7829  151.8931  143.8930 C   0  0  0  0  0  0  0  0  0  0  0  0
  138.6299  149.7790  142.4971 C   0  0  0  0  0  0  0  0  0  0  0  0
  137.3048  153.0079  144.6642 C   0  0  0  0  0  0  0  0  0  0  0  0
  136.0063  152.9003  145.3273 C   0  0  0  0  0  0  0  0  0  0  0  0
  135.3554  151.6773  145.1752 C   0  0  0  0  0  0  0  0  0  0  0  0
  137.2298  150.4596  143.8948 C   0  0  0  0  0  0  0  0  0  0  0  0
  134.1956  151.5506  145.8929 C   0  0  0  0  0  0  0  0  0  0  0  0
  136.0791  150.4073  144.9646 C   0  0  0  0  0  0  0  0  0  0  0  0
  137.8380  149.4859  143.2770 N   0  0  0  0  0  0  0  0  0  0  0  0
  1  2  1  0
  2  3  2  0
  1  4  2  0
  3  5  1  0
  5  6  2  0
  6  7  1  0
  3  8  1  0
  7  9  1  0
  7 10  1  0
  8 10  1  0
  4 11  1  0
  8 11  2  0
M  END
$$$$

     RDKit          3D

 11 12  0  0  0  0  0  0  0  0999 V2000
  138.9699  151.3138  142.5680 C   0  0  0  0  0  0  0  0  0  0  0  0
  138.6028  152.0884  143.2652 C   0  0  0  0  0  0  0  0  0  0  0  0
  139.7631  151.4673  141.3548 C   0  0  0  0  0  0  0  0  0  0  0  0
  137.7630  151.7029  144.3616 C   0  0  0  0  0  0  0  0  0  0  0  0
  137.3920  150.3001  144.2733 C   0  0  0  0  0  0  0  0  0  0  0  0
  139.5876  150.5258  140.3061 C   0  0  0  0  0  0  0  0  0  0  0  0
  138.2783  149.8916  142.6868 C   0  0  0  0  0  0  0  0  0  0  0  0
  138.8826  149.4400  140.3320 C   0  0  0  0  0  0  0  0  0  0  0  0
  137.6572  149.5103  143.5163 C   0  0  0  0  0  0  0  0  0  0  0  0
  140.4502  150.8608  139.0482 C   0  0  0  0  0  0  0  0  0  0  0  0
  138.4177  149.0789  141.4161 N   0  0  0  0  0  0  0  0  0  0  0  0
  1  2  1  0
  1  3  1  0
  2  4  2  0
  4  5  1  0
  3  6  2  0
  1  7  2  0
  6  8  1  0
  5  9  2  0
  7  9  1  0
  6 10  1  0
  7 11  1  0
  8 11  2  0
M  END
$$$$

     RDKit          3D

 11 11  0  0  0  0  0  0  0  0999 V2000
  139.5547  150.5070  140.4456 C   0  0  0  0  0  0  0  0  0  0  0  0
  139.2168  150.0153  139.3732 C   0  0  0  0  0  0  0  0  0  0  0  0
  138.8576  150.3067  141.5853 C   0  0  0  0  0  0  0  0  0  0  0  0
  137.9795  149.2997  139.2377 C   0  0  0  0  0  0  0  0  0  0  0  0
  137.2014  149.2065  140.2777 C   0  0  0  0  0  0  0  0  0  0  0  0
  139.3287  150.8974  142.9145 C   0  0  0  0  0  0  0  0  0  0  0  0
  138.3159  151.4430  143.6701 C   0  0  0  0  0  0  0  0  0  0  0  0
  137.5441  149.7980  141.5420 C   0  0  0  0  0  0  0  0  0  0  0  0
  137.7319  151.3282  144.6976 C   0  0  0  0  0  0  0  0  0  0  0  0
  136.5468  151.9130  145.0812 C   0  0  0  0  0  0  0  0  0  0  0  0
  136.4241  153.2569  144.7892 C   0  0  0  0  0  0  0  0  0  0  0  0
  1  2  2  0
  1  3  1  0
  2  4  1  0
  4  5  2  0
  3  6  1  0
  6  7  2  3
  3  8  2  0
  5  8  1  0
  7  9  1  0
  9 10  1  0
 10 11  1  0
M  END
$$$$

     RDKit          3D

 11 11  0  0  0  0  0  0  0  0999 V2000
  140.8778  150.5419  139.7337 Cl  0  0  0  0  0  0  0  0  0  0  0  0
  138.9614  150.5329  140.4448 C   0  0  0  0  0  0  0  0  0  0  0  0
  138.2154  149.5089  139.9489 C   0  0  0  0  0  0  0  0  0  0  0  0
  138.7771  151.4412  141.4365 C   0  0  0  0  0  0  0  0  0  0  0  0
  136.8868  149.4565  140.5916 C   0  0  0  0  0  0  0  0  0  0  0  0
  137.6251  151.1479  142.2653 C   0  0  0  0  0  0  0  0  0  0  0  0
  137.4362  151.8649  143.4953 C   0  0  0  0  0  0  0  0  0  0  0  0
  135.8751  148.6846  140.0404 C   0  0  0  0  0  0  0  0  0  0  0  0
  136.6105  150.2956  141.7101 C   0  0  0  0  0  0  0  0  0  0  0  0
  136.2746  151.6296  144.2630 C   0  0  0  0  0  0  0  0  0  0  0  0
  138.4809  152.6362  144.0709 C   0  0  0  0  0  0  0  0  0  0  0  0
  1  2  1  0
  2  3  2  0
  2  4  1  0
  3  5  1  0
  4  6  2  0
  6  7  1  0
  5  8  1  0
  5  9  2  0
  6  9  1  0
  7 10  1  0
  7 11  2  0
M  END
$$$$

     RDKit          3D

 11 12  0  0  0  0  0  0  0  0999 V2000
  138.9699  151.3138  142.5680 C   0  0  0  0  0  0  0  0  0  0  0  0
  138.6028  152.0884  143.2652 C   0  0  0  0  0  0  0  0  0  0  0  0
  137.6377  151.6909  144.0815 C   0  0  0  0  0  0  0  0  0  0  0  0
  137.2743  150.3458  144.1256 C   0  0  0  0  0  0  0  0  0  0  0  0
  136.8350  152.5464  145.0564 C   0  0  0  0  0  0  0  0  0  0  0  0
  138.5609  149.9198  142.4151 C   0  0  0  0  0  0  0  0  0  0  0  0
  135.6546  152.0666  145.5934 C   0  0  0  0  0  0  0  0  0  0  0  0
  136.3461  149.9676  145.1877 C   0  0  0  0  0  0  0  0  0  0  0  0
  135.4398  150.7252  145.8304 C   0  0  0  0  0  0  0  0  0  0  0  0
  137.9364  149.5194  143.2149 N   0  0  0  0  0  0  0  0  0  0  0  0
  134.6918  153.0111  146.0644 C   0  0  0  0  0  0  0  0  0  0  0  0
  1  2  1  0
  2  3  2  0
  3  4  1  0
  3  5  1  0
  1  6  2  0
  5  7  1  0
  4  8  1  0
  7  9  1  0
  8  9  1  0
  4 10  2  0
  6 10  1  0
  7 11  2  0
M  END
$$$$

     RDKit          3D

 11 11  0  0  0  0  0  0  0  0999 V2000
  138.7247  151.5764  143.3183 C   0  0  0  0  0  0  0  0  0  0  0  0
  137.9184  152.3259  143.7535 C   0  0  0  0  0  0  0  0  0  0  0  0
  136.7531  151.7836  144.4567 C   0  0  0  0  0  0  0  0  0  0  0  0
  136.8362  150.4414  144.7132 C   0  0  0  0  0  0  0  0  0  0  0  0
  138.7265  150.3748  143.0129 C   0  0  0  0  0  0  0  0  0  0  0  0
  139.6213  149.6149  142.1899 C   0  0  0  0  0  0  0  0  0  0  0  0
  135.8497  152.6994  145.2001 C   0  0  0  0  0  0  0  0  0  0  0  0
  137.6363  149.7174  143.8827 C   0  0  0  0  0  0  0  0  0  0  0  0
  139.4930  149.9926  140.7728 C   0  0  0  0  0  0  0  0  0  0  0  0
  140.3426  150.2991  140.1368 C   0  0  0  0  0  0  0  0  0  0  0  0
  140.3265  150.5502  138.9774 C   0  0  0  0  0  0  0  0  0  0  0  0
  1  2  1  0
  2  3  2  0
  3  4  1  0
  1  5  2  0
  5  6  1  0
  3  7  1  0
  4  8  2  0
  5  8  1  0
  6  9  1  0
  9 10  1  0
 10 11  2  0
M  END
$$$$

     RDKit          3D

 11 12  0  0  0  0  0  0  0  0999 V2000
  140.8778  150.5419  139.7337 Cl  0  0  0  0  0  0  0  0  0  0  0  0
  138.9614  150.5329  140.4448 C   0  0  0  0  0  0  0  0  0  0  0  0
  138.2154  149.5089  139.9489 C   0  0  0  0  0  0  0  0  0  0  0  0
  136.8617  149.5090  140.3210 C   0  0  0  0  0  0  0  0  0  0  0  0
  139.0012  151.0524  141.6434 C   0  0  0  0  0  0  0  0  0  0  0  0
  137.9608  150.9945  142.3904 C   0  0  0  0  0  0  0  0  0  0  0  0
  137.9126  151.5639  143.7849 C   0  0  0  0  0  0  0  0  0  0  0  0
  136.4856  150.0759  141.6547 C   0  0  0  0  0  0  0  0  0  0  0  0
  136.9274  150.7231  142.5126 C   0  0  0  0  0  0  0  0  0  0  0  0
  136.1538  151.1538  143.6604 C   0  0  0  0  0  0  0  0  0  0  0  0
  136.8399  151.6205  144.4402 N   0  0  0  0  0  0  0  0  0  0  0  0
  1  2  1  0
  2  3  2  0
  3  4  1  0
  2  5  1  0
  5  6  2  0
  6  7  1  0
  4  8  2  0
  6  9  1  0
  8  9  1  0
  9 10  2  0
  7 11  2  0
 10 11  1  0
M  END
$$$$

     RDKit          3D

 11 11  0  0  0  0  0  0  0  0999 V2000
  138.7092  151.1474  142.6270 C   0  0  0  0  0  0  0  0  0  0  0  0
  138.5252  151.9373  143.5111 C   0  0  0  0  0  0  0  0  0  0  0  0
  137.3814  151.6573  144.3961 C   0  0  0  0  0  0  0  0  0  0  0  0
  139.7031  151.1128  141.6105 C   0  0  0  0  0  0  0  0  0  0  0  0
  136.7531  152.5760  145.3055 C   0  0  0  0  0  0  0  0  0  0  0  0
  139.6217  150.4559  140.3336 C   0  0  0  0  0  0  0  0  0  0  0  0
  138.4482  149.6024  140.4479 C   0  0  0  0  0  0  0  0  0  0  0  0
  137.5872  149.7615  141.5813 C   0  0  0  0  0  0  0  0  0  0  0  0
  140.6805  150.4109  139.3309 C   0  0  0  0  0  0  0  0  0  0  0  0
  135.4061  152.4666  145.6358 C   0  0  0  0  0  0  0  0  0  0  0  0
  137.6459  150.3348  142.3634 C   0  0  0  0  0  0  0  0  0  0  0  0
  1  2  1  0
  2  3  2  3
  1  4  1  0
  3  5  1  0
  4  6  2  0
  6  7  1  0
  7  8  2  0
  6  9  1  0
  5 10  2  0
  1 11  2  0
  8 11  1  0
M  END
$$$$

     RDKit          3D

 11 11  0  0  0  0  0  0  0  0999 V2000
  138.7092  151.1474  142.6270 C   0  0  0  0  0  0  0  0  0  0  0  0
  138.5252  151.9373  143.5111 C   0  0  0  0  0  0  0  0  0  0  0  0
  137.4746  151.6736  144.4636 C   0  0  0  0  0  0  0  0  0  0  0  0
  138.0112  149.8671  142.4730 C   0  0  0  0  0  0  0  0  0  0  0  0
  136.7207  150.4820  144.2961 C   0  0  0  0  0  0  0  0  0  0  0  0
  137.0025  149.5537  143.4105 C   0  0  0  0  0  0  0  0  0  0  0  0
  137.1197  152.6566  145.4794 C   0  0  0  0  0  0  0  0  0  0  0  0
  139.7804  151.3085  141.5520 C   0  0  0  0  0  0  0  0  0  0  0  0
  136.0051  153.1907  145.3714 C   0  0  0  0  0  0  0  0  0  0  0  0
  139.8118  150.4872  140.3929 C   0  0  0  0  0  0  0  0  0  0  0  0
  140.7264  150.7857  139.3236 C   0  0  0  0  0  0  0  0  0  0  0  0
  1  2  2  0
  2  3  1  0
  1  4  1  0
  3  5  2  0
  4  6  2  0
  5  6  1  0
  3  7  1  0
  1  8  1  0
  7  9  1  0
  8 10  2  3
 10 11  1  0
M  END
$$$$

     RDKit          3D

 11 12  0  0  0  0  0  0  0  0999 V2000
  140.8778  150.5419  139.7337 Cl  0  0  0  0  0  0  0  0  0  0  0  0
  138.9614  150.5329  140.4448 C   0  0  0  0  0  0  0  0  0  0  0  0
  138.2154  149.5089  139.9489 C   0  0  0  0  0  0  0  0  0  0  0  0
  136.8617  149.5090  140.3210 C   0  0  0  0  0  0  0  0  0  0  0  0
  139.0012  151.0524  141.6434 C   0  0  0  0  0  0  0  0  0  0  0  0
  137.9608  150.9945  142.3904 C   0  0  0  0  0  0  0  0  0  0  0  0
  137.9126  151.5639  143.7849 C   0  0  0  0  0  0  0  0  0  0  0  0
  136.4856  150.0759  141.6547 C   0  0  0  0  0  0  0  0  0  0  0  0
  136.9274  150.7231  142.5126 C   0  0  0  0  0  0  0  0  0  0  0  0
  136.8589  151.5624  144.5024 C   0  0  0  0  0  0  0  0  0  0  0  0
  136.0078  151.0620  143.5975 C   0  0  0  0  0  0  0  0  0  0  0  0
  1  2  1  0
  2  3  2  0
  3  4  1  0
  2  5  1  0
  5  6  2  0
  6  7  1  0
  4  8  2  0
  6  9  1  0
  8  9  1  0
  7 10  2  0
  9 11  2  0
 10 11  1  0
M  END
$$$$

     RDKit          3D

 11 12  0  0  0  0  0  0  0  0999 V2000
  138.9699  151.3138  142.5680 C   0  0  0  0  0  0  0  0  0  0  0  0
  138.6028  152.0884  143.2652 C   0  0  0  0  0  0  0  0  0  0  0  0
  137.6377  151.6909  144.0815 C   0  0  0  0  0  0  0  0  0  0  0  0
  137.2743  150.3458  144.1256 C   0  0  0  0  0  0  0  0  0  0  0  0
  138.6285  149.8576  142.4561 C   0  0  0  0  0  0  0  0  0  0  0  0
  136.6700  152.4504  145.1379 C   0  0  0  0  0  0  0  0  0  0  0  0
  135.6331  151.8358  145.6654 C   0  0  0  0  0  0  0  0  0  0  0  0
  136.3437  149.9435  145.1557 C   0  0  0  0  0  0  0  0  0  0  0  0
  135.6068  150.6135  145.9138 C   0  0  0  0  0  0  0  0  0  0  0  0
  137.8421  149.5238  143.2917 N   0  0  0  0  0  0  0  0  0  0  0  0
  135.1530  152.9789  146.5424 C   0  0  0  0  0  0  0  0  0  0  0  0
  1  2  1  0
  2  3  2  0
  3  4  1  0
  1  5  2  0
  3  6  1  0
  6  7  1  0
  4  8  1  0
  7  9  1  0
  8  9  2  0
  4 10  2  0
  5 10  1  0
  7 11  1  0
M  END
$$$$

     RDKit          3D

 11 12  0  0  0  0  0  0  0  0999 V2000
  138.7092  151.1474  142.6270 C   0  0  0  0  0  0  0  0  0  0  0  0
  138.5252  151.9373  143.5111 C   0  0  0  0  0  0  0  0  0  0  0  0
  137.3814  151.6573  144.3961 C   0  0  0  0  0  0  0  0  0  0  0  0
  139.7031  151.1128  141.6105 C   0  0  0  0  0  0  0  0  0  0  0  0
  136.7531  152.5760  145.3055 C   0  0  0  0  0  0  0  0  0  0  0  0
  139.6217  150.4559  140.3336 C   0  0  0  0  0  0  0  0  0  0  0  0
  138.4482  149.6024  140.4479 C   0  0  0  0  0  0  0  0  0  0  0  0
  137.8387  150.0397  142.3106 C   0  0  0  0  0  0  0  0  0  0  0  0
  136.8815  150.0782  143.5207 C   0  0  0  0  0  0  0  0  0  0  0  0
  140.8134  150.7270  139.5959 C   0  0  0  0  0  0  0  0  0  0  0  0
  137.5802  149.5443  141.4134 N   0  0  0  0  0  0  0  0  0  0  0  0
  1  2  1  0
  2  3  2  0
  1  4  1  0
  3  5  1  0
  4  6  2  0
  6  7  1  0
  1  8  2  0
  3  9  1  0
  8  9  1  0
  6 10  1  0
  7 11  2  0
  8 11  1  0
M  END
$$$$

     RDKit          3D

 11 12  0  0  0  0  0  0  0  0999 V2000
  138.9699  151.3138  142.5680 C   0  0  0  0  0  0  0  0  0  0  0  0
  138.6028  152.0884  143.2652 C   0  0  0  0  0  0  0  0  0  0  0  0
  137.4868  151.7382  144.1979 C   0  0  0  0  0  0  0  0  0  0  0  0
  137.1833  150.3915  144.2669 C   0  0  0  0  0  0  0  0  0  0  0  0
  138.6180  149.8353  142.4958 C   0  0  0  0  0  0  0  0  0  0  0  0
  136.6476  152.5434  145.1228 C   0  0  0  0  0  0  0  0  0  0  0  0
  135.5087  152.0680  145.6322 C   0  0  0  0  0  0  0  0  0  0  0  0
  136.2760  149.9956  145.2629 C   0  0  0  0  0  0  0  0  0  0  0  0
  134.5562  153.0204  146.1574 C   0  0  0  0  0  0  0  0  0  0  0  0
  137.8165  149.5098  143.3737 C   0  0  0  0  0  0  0  0  0  0  0  0
  135.3588  150.6861  145.9099 C   0  0  0  0  0  0  0  0  0  0  0  0
  1  2  1  0
  2  3  2  0
  3  4  1  0
  1  5  2  0
  3  6  1  0
  6  7  1  0
  4  8  1  0
  7  9  1  0
  4 10  2  0
  5 10  1  0
  7 11  1  0
  8 11  1  0
M  END
$$$$

     RDKit          3D

 11 12  0  0  0  0  0  0  0  0999 V2000
  138.9699  151.3138  142.5680 C   0  0  0  0  0  0  0  0  0  0  0  0
  138.6028  152.0884  143.2652 C   0  0  0  0  0  0  0  0  0  0  0  0
  137.4868  151.7382  144.1979 C   0  0  0  0  0  0  0  0  0  0  0  0
  137.1833  150.3915  144.2669 C   0  0  0  0  0  0  0  0  0  0  0  0
  138.6180  149.8353  142.4958 C   0  0  0  0  0  0  0  0  0  0  0  0
  136.6476  152.5434  145.1228 C   0  0  0  0  0  0  0  0  0  0  0  0
  135.5087  152.0680  145.6322 C   0  0  0  0  0  0  0  0  0  0  0  0
  136.2760  149.9956  145.2629 C   0  0  0  0  0  0  0  0  0  0  0  0
  134.5562  153.0204  146.1574 C   0  0  0  0  0  0  0  0  0  0  0  0
  137.8165  149.5098  143.3737 C   0  0  0  0  0  0  0  0  0  0  0  0
  135.3084  150.8220  145.7622 C   0  0  0  0  0  0  0  0  0  0  0  0
  1  2  1  0
  2  3  2  0
  3  4  1  0
  1  5  2  0
  3  6  1  0
  6  7  1  0
  4  8  1  0
  7  9  1  0
  4 10  2  0
  5 10  1  0
  7 11  2  0
  8 11  1  0
M  END
$$$$

     RDKit          3D

 11 12  0  0  0  0  0  0  0  0999 V2000
  138.9699  151.3138  142.5680 C   0  0  0  0  0  0  0  0  0  0  0  0
  138.6028  152.0884  143.2652 C   0  0  0  0  0  0  0  0  0  0  0  0
  137.4868  151.7382  144.1979 C   0  0  0  0  0  0  0  0  0  0  0  0
  137.1833  150.3915  144.2669 C   0  0  0  0  0  0  0  0  0  0  0  0
  138.6180  149.8353  142.4958 C   0  0  0  0  0  0  0  0  0  0  0  0
  136.6476  152.5434  145.1228 C   0  0  0  0  0  0  0  0  0  0  0  0
  135.5087  152.0680  145.6322 C   0  0  0  0  0  0  0  0  0  0  0  0
  136.2760  149.9956  145.2629 C   0  0  0  0  0  0  0  0  0  0  0  0
  134.5562  153.0204  146.1574 C   0  0  0  0  0  0  0  0  0  0  0  0
  137.8165  149.5098  143.3737 N   0  0  0  0  0  0  0  0  0  0  0  0
  135.2861  150.7831  145.7466 C   0  0  0  0  0  0  0  0  0  0  0  0
  1  2  1  0
  2  3  2  0
  3  4  1  0
  1  5  2  0
  3  6  1  0
  6  7  1  0
  4  8  1  0
  7  9  1  0
  4 10  2  0
  5 10  1  0
  7 11  1  0
  8 11  1  0
M  END
$$$$

     RDKit          3D

 11 11  0  0  0  0  0  0  0  0999 V2000
  138.9699  151.3138  142.5680 C   0  0  0  0  0  0  0  0  0  0  0  0
  138.6028  152.0884  143.2652 C   0  0  0  0  0  0  0  0  0  0  0  0
  137.6691  151.8112  144.0575 C   0  0  0  0  0  0  0  0  0  0  0  0
  136.5758  152.7066  144.5957 C   0  0  0  0  0  0  0  0  0  0  0  0
  139.8386  151.3584  141.3360 C   0  0  0  0  0  0  0  0  0  0  0  0
  135.4778  152.3761  145.3561 C   0  0  0  0  0  0  0  0  0  0  0  0
  135.5311  150.9302  145.6901 C   0  0  0  0  0  0  0  0  0  0  0  0
  137.2472  150.4901  144.6565 C   0  0  0  0  0  0  0  0  0  0  0  0
  136.3536  150.0824  145.4252 C   0  0  0  0  0  0  0  0  0  0  0  0
  139.5794  150.6406  140.2734 C   0  0  0  0  0  0  0  0  0  0  0  0
  138.3833  149.9305  140.2542 C   0  0  0  0  0  0  0  0  0  0  0  0
  1  2  2  3
  2  3  1  0
  3  4  1  0
  1  5  1  0
  4  6  2  0
  6  7  1  0
  3  8  2  0
  7  9  2  0
  8  9  1  0
  5 10  2  3
 10 11  1  0
M  END
$$$$

     RDKit          3D

 11 12  0  0  0  0  0  0  0  0999 V2000
  138.9699  151.3138  142.5680 C   0  0  0  0  0  0  0  0  0  0  0  0
  138.6028  152.0884  143.2652 C   0  0  0  0  0  0  0  0  0  0  0  0
  137.4868  151.7382  144.1979 C   0  0  0  0  0  0  0  0  0  0  0  0
  139.9964  151.3955  141.4280 C   0  0  0  0  0  0  0  0  0  0  0  0
  137.1558  150.3526  144.0264 C   0  0  0  0  0  0  0  0  0  0  0  0
  139.6376  150.7227  140.2351 C   0  0  0  0  0  0  0  0  0  0  0  0
  138.1369  149.9837  142.5220 C   0  0  0  0  0  0  0  0  0  0  0  0
  138.6490  149.8790  140.0582 C   0  0  0  0  0  0  0  0  0  0  0  0
  136.8066  152.4433  145.1835 C   0  0  0  0  0  0  0  0  0  0  0  0
  137.9206  149.2124  141.4942 C   0  0  0  0  0  0  0  0  0  0  0  0
  138.2476  149.3358  138.9653 C   0  0  0  0  0  0  0  0  0  0  0  0
  1  2  1  0
  2  3  2  0
  1  4  1  0
  3  5  1  0
  4  6  2  0
  1  7  2  0
  5  7  1  0
  6  8  1  0
  3  9  1  0
  7 10  1  0
  8 10  1  0
  8 11  2  0
M  END
$$$$

     RDKit          3D

 11 11  0  0  0  0  0  0  0  0999 V2000
  140.8778  150.5419  139.7337 Cl  0  0  0  0  0  0  0  0  0  0  0  0
  138.9614  150.5329  140.4448 C   0  0  0  0  0  0  0  0  0  0  0  0
  138.2154  149.5089  139.9489 C   0  0  0  0  0  0  0  0  0  0  0  0
  138.9058  151.3604  141.4410 C   0  0  0  0  0  0  0  0  0  0  0  0
  137.7037  151.1653  142.2004 C   0  0  0  0  0  0  0  0  0  0  0  0
  137.6067  151.8428  143.5371 C   0  0  0  0  0  0  0  0  0  0  0  0
  136.9199  150.1333  141.6274 C   0  0  0  0  0  0  0  0  0  0  0  0
  136.9844  149.4676  140.5659 C   0  0  0  0  0  0  0  0  0  0  0  0
  136.4610  151.4991  144.3153 C   0  0  0  0  0  0  0  0  0  0  0  0
  136.0355  152.4772  145.3188 C   0  0  0  0  0  0  0  0  0  0  0  0
  136.6085  153.6868  145.2471 C   0  0  0  0  0  0  0  0  0  0  0  0
  1  2  1  0
  2  3  1  0
  2  4  2  0
  4  5  1  0
  5  6  1  0
  5  7  2  0
  3  8  2  0
  7  8  1  0
  6  9  1  0
  9 10  1  0
 10 11  2  0
M  END
$$$$

     RDKit          3D

 11 12  0  0  0  0  0  0  0  0999 V2000
  138.9699  151.3138  142.5680 C   0  0  0  0  0  0  0  0  0  0  0  0
  138.6028  152.0884  143.2652 C   0  0  0  0  0  0  0  0  0  0  0  0
  137.4868  151.7382  144.1979 C   0  0  0  0  0  0  0  0  0  0  0  0
  139.9964  151.3955  141.4280 C   0  0  0  0  0  0  0  0  0  0  0  0
  139.7128  150.7435  140.2231 C   0  0  0  0  0  0  0  0  0  0  0  0
  136.8228  152.5252  145.1074 C   0  0  0  0  0  0  0  0  0  0  0  0
  135.5703  152.2287  145.6318 C   0  0  0  0  0  0  0  0  0  0  0  0
  138.6521  149.7726  140.3978 C   0  0  0  0  0  0  0  0  0  0  0  0
  137.8253  149.9062  141.3261 C   0  0  0  0  0  0  0  0  0  0  0  0
  138.1435  150.5815  142.4666 C   0  0  0  0  0  0  0  0  0  0  0  0
  137.2538  150.4132  143.6736 N   0  0  0  0  0  0  0  0  0  0  0  0
  1  2  1  0
  2  3  2  0
  1  4  1  0
  4  5  2  0
  3  6  1  0
  6  7  1  0
  5  8  1  0
  8  9  2  0
  1 10  2  0
  9 10  1  0
  3 11  1  0
 10 11  1  0
M  END
$$$$

     RDKit          3D

 11 11  0  0  0  0  0  0  0  0999 V2000
  140.8778  150.5419  139.7337 Cl  0  0  0  0  0  0  0  0  0  0  0  0
  138.9614  150.5329  140.4448 C   0  0  0  0  0  0  0  0  0  0  0  0
  138.2154  149.5089  139.9489 C   0  0  0  0  0  0  0  0  0  0  0  0
  138.7771  151.4412  141.4365 C   0  0  0  0  0  0  0  0  0  0  0  0
  136.8868  149.4565  140.5916 C   0  0  0  0  0  0  0  0  0  0  0  0
  137.6251  151.1479  142.2653 C   0  0  0  0  0  0  0  0  0  0  0  0
  137.4362  151.8649  143.4953 C   0  0  0  0  0  0  0  0  0  0  0  0
  135.8751  148.6846  140.0404 C   0  0  0  0  0  0  0  0  0  0  0  0
  138.3363  152.6463  144.1560 C   0  0  0  0  0  0  0  0  0  0  0  0
  136.7865  151.3248  144.6374 C   0  0  0  0  0  0  0  0  0  0  0  0
  136.7544  150.3472  141.6693 C   0  0  0  0  0  0  0  0  0  0  0  0
  1  2  1  0
  2  3  2  0
  2  4  1  0
  3  5  1  0
  4  6  2  0
  6  7  1  0
  5  8  1  0
  7  9  1  0
  7 10  1  0
  5 11  2  0
  6 11  1  0
M  END
$$$$

     RDKit          3D

 11 11  0  0  0  0  0  0  0  0999 V2000
  140.8778  150.5419  139.7337 Cl  0  0  0  0  0  0  0  0  0  0  0  0
  138.9614  150.5329  140.4448 C   0  0  0  0  0  0  0  0  0  0  0  0
  138.2154  149.5089  139.9489 C   0  0  0  0  0  0  0  0  0  0  0  0
  138.9058  151.3604  141.4410 C   0  0  0  0  0  0  0  0  0  0  0  0
  137.7037  151.1653  142.2004 C   0  0  0  0  0  0  0  0  0  0  0  0
  137.6067  151.8428  143.5371 C   0  0  0  0  0  0  0  0  0  0  0  0
  136.9199  150.1333  141.6274 C   0  0  0  0  0  0  0  0  0  0  0  0
  136.4562  151.5700  144.3075 C   0  0  0  0  0  0  0  0  0  0  0  0
  137.0033  149.4452  140.5308 C   0  0  0  0  0  0  0  0  0  0  0  0
  136.0672  152.5460  145.3269 C   0  0  0  0  0  0  0  0  0  0  0  0
  136.7116  153.7128  145.2854 C   0  0  0  0  0  0  0  0  0  0  0  0
  1  2  1  0
  2  3  1  0
  2  4  2  0
  4  5  1  0
  5  6  1  0
  5  7  2  0
  6  8  1  0
  3  9  2  0
  7  9  1  0
  8 10  1  0
 10 11  1  0
M  END
$$$$

     RDKit          3D

 11 12  0  0  0  0  0  0  0  0999 V2000
  139.2623  151.0928  142.4045 C   0  0  0  0  0  0  0  0  0  0  0  0
  138.8616  152.1314  142.9035 C   0  0  0  0  0  0  0  0  0  0  0  0
  137.9123  151.7989  143.7814 C   0  0  0  0  0  0  0  0  0  0  0  0
  138.8307  150.4000  141.6050 C   0  0  0  0  0  0  0  0  0  0  0  0
  137.6881  149.9457  141.7522 C   0  0  0  0  0  0  0  0  0  0  0  0
  137.5093  152.6054  144.9569 C   0  0  0  0  0  0  0  0  0  0  0  0
  136.2294  152.8169  145.1366 C   0  0  0  0  0  0  0  0  0  0  0  0
  136.7612  150.7584  143.6309 C   0  0  0  0  0  0  0  0  0  0  0  0
  135.7274  151.1221  144.5705 C   0  0  0  0  0  0  0  0  0  0  0  0
  136.6078  150.0197  142.5866 C   0  0  0  0  0  0  0  0  0  0  0  0
  139.6614  150.0658  140.4256 C   0  0  0  0  0  0  0  0  0  0  0  0
  1  2  1  0
  2  3  2  0
  1  4  2  0
  4  5  1  0
  3  6  1  0
  6  7  2  0
  3  8  1  0
  7  9  1  0
  8  9  1  0
  5 10  1  0
  8 10  1  0
  4 11  1  0
M  END
$$$$

     RDKit          3D

 11 12  0  0  0  0  0  0  0  0999 V2000
  138.9699  151.3138  142.5680 C   0  0  0  0  0  0  0  0  0  0  0  0
  138.6028  152.0884  143.2652 C   0  0  0  0  0  0  0  0  0  0  0  0
  137.6691  151.8112  144.0575 C   0  0  0  0  0  0  0  0  0  0  0  0
  136.5758  152.7066  144.5957 C   0  0  0  0  0  0  0  0  0  0  0  0
  135.5865  152.4520  145.5239 C   0  0  0  0  0  0  0  0  0  0  0  0
  139.9119  151.4259  141.3573 C   0  0  0  0  0  0  0  0  0  0  0  0
  135.6786  150.9924  145.8717 C   0  0  0  0  0  0  0  0  0  0  0  0
  137.2821  150.4143  144.6542 C   0  0  0  0  0  0  0  0  0  0  0  0
  138.3181  149.5410  144.1306 C   0  0  0  0  0  0  0  0  0  0  0  0
  139.1083  149.8840  143.0100 C   0  0  0  0  0  0  0  0  0  0  0  0
  136.4957  150.0522  145.4859 N   0  0  0  0  0  0  0  0  0  0  0  0
  1  2  2  0
  2  3  1  0
  3  4  1  0
  4  5  2  0
  1  6  1  0
  5  7  1  0
  3  8  2  0
  8  9  1  0
  1 10  1  0
  9 10  2  0
  7 11  2  0
  8 11  1  0
M  END
$$$$

     RDKit          3D

 11 11  0  0  0  0  0  0  0  0999 V2000
  138.9699  151.3138  142.5680 C   0  0  0  0  0  0  0  0  0  0  0  0
  138.6028  152.0884  143.2652 C   0  0  0  0  0  0  0  0  0  0  0  0
  137.6691  151.8112  144.0575 C   0  0  0  0  0  0  0  0  0  0  0  0
  136.5758  152.7066  144.5957 C   0  0  0  0  0  0  0  0  0  0  0  0
  135.5865  152.4520  145.5239 C   0  0  0  0  0  0  0  0  0  0  0  0
  139.9119  151.4259  141.3573 C   0  0  0  0  0  0  0  0  0  0  0  0
  135.6786  150.9924  145.8717 C   0  0  0  0  0  0  0  0  0  0  0  0
  137.2821  150.4143  144.6542 C   0  0  0  0  0  0  0  0  0  0  0  0
  138.3181  149.5410  144.1306 O   0  0  0  0  0  0  0  0  0  0  0  0
  139.6268  150.6594  140.2399 C   0  0  0  0  0  0  0  0  0  0  0  0
  136.5010  150.0133  145.5409 C   0  0  0  0  0  0  0  0  0  0  0  0
  1  2  2  3
  2  3  1  0
  3  4  1  0
  4  5  2  0
  1  6  1  0
  5  7  1  0
  3  8  2  0
  8  9  1  0
  6 10  1  0
  7 11  2  0
  8 11  1  0
M  END
$$$$

     RDKit          3D

 11 11  0  0  0  0  0  0  0  0999 V2000
  138.7247  151.5764  143.3183 C   0  0  0  0  0  0  0  0  0  0  0  0
  137.9184  152.3259  143.7535 C   0  0  0  0  0  0  0  0  0  0  0  0
  136.7531  151.7836  144.4567 C   0  0  0  0  0  0  0  0  0  0  0  0
  136.8362  150.4414  144.7132 C   0  0  0  0  0  0  0  0  0  0  0  0
  138.7265  150.3748  143.0129 C   0  0  0  0  0  0  0  0  0  0  0  0
  135.9827  149.8124  145.6763 C   0  0  0  0  0  0  0  0  0  0  0  0
  139.5974  149.5764  142.2297 C   0  0  0  0  0  0  0  0  0  0  0  0
  137.6540  149.6941  143.8587 C   0  0  0  0  0  0  0  0  0  0  0  0
  139.5075  150.0054  140.8146 C   0  0  0  0  0  0  0  0  0  0  0  0
  135.7976  152.7238  145.1743 C   0  0  0  0  0  0  0  0  0  0  0  0
  140.3168  150.2978  140.1754 C   0  0  0  0  0  0  0  0  0  0  0  0
  1  2  1  0
  2  3  2  0
  3  4  1  0
  1  5  2  0
  4  6  1  0
  5  7  1  0
  4  8  2  0
  5  8  1  0
  7  9  1  0
  3 10  1  0
  9 11  2  0
M  END
$$$$

     RDKit          3D

 11 11  0  0  0  0  0  0  0  0999 V2000
  139.5547  150.5070  140.4456 C   0  0  0  0  0  0  0  0  0  0  0  0
  139.2168  150.0153  139.3732 C   0  0  0  0  0  0  0  0  0  0  0  0
  138.8576  150.3067  141.5853 C   0  0  0  0  0  0  0  0  0  0  0  0
  137.9795  149.2997  139.2377 C   0  0  0  0  0  0  0  0  0  0  0  0
  137.2014  149.2065  140.2777 C   0  0  0  0  0  0  0  0  0  0  0  0
  139.3287  150.8974  142.9145 C   0  0  0  0  0  0  0  0  0  0  0  0
  138.3159  151.4430  143.6701 C   0  0  0  0  0  0  0  0  0  0  0  0
  137.1816  151.2533  143.6210 C   0  0  0  0  0  0  0  0  0  0  0  0
  137.4938  149.8956  141.5174 C   0  0  0  0  0  0  0  0  0  0  0  0
  136.2832  151.7830  144.8370 C   0  0  0  0  0  0  0  0  0  0  0  0
  135.1286  151.8544  144.8775 C   0  0  0  0  0  0  0  0  0  0  0  0
  1  2  2  0
  1  3  1  0
  2  4  1  0
  4  5  2  0
  3  6  1  0
  6  7  2  3
  7  8  1  0
  3  9  2  0
  5  9  1  0
  8 10  1  0
 10 11  2  0
M  END
$$$$

     RDKit          3D

 11 11  0  0  0  0  0  0  0  0999 V2000
  138.7247  151.5764  143.3183 C   0  0  0  0  0  0  0  0  0  0  0  0
  137.9184  152.3259  143.7535 C   0  0  0  0  0  0  0  0  0  0  0  0
  136.7531  151.7836  144.4567 C   0  0  0  0  0  0  0  0  0  0  0  0
  136.8362  150.4414  144.7132 C   0  0  0  0  0  0  0  0  0  0  0  0
  138.7265  150.3748  143.0129 C   0  0  0  0  0  0  0  0  0  0  0  0
  139.6213  149.6149  142.1899 C   0  0  0  0  0  0  0  0  0  0  0  0
  139.7409  150.2983  140.9082 C   0  0  0  0  0  0  0  0  0  0  0  0
  140.1745  149.5822  139.7375 C   0  0  0  0  0  0  0  0  0  0  0  0
  135.5022  152.2545  145.0499 C   0  0  0  0  0  0  0  0  0  0  0  0
  141.3994  149.4133  139.4585 C   0  0  0  0  0  0  0  0  0  0  0  0
  137.9096  149.8242  143.8592 N   0  0  0  0  0  0  0  0  0  0  0  0
  1  2  1  0
  2  3  2  0
  3  4  1  0
  1  5  2  0
  5  6  1  0
  6  7  1  0
  7  8  1  0
  3  9  1  0
  8 10  1  0
  4 11  1  0
  5 11  1  0
M  END
$$$$

     RDKit          3D

 11 11  0  0  0  0  0  0  0  0999 V2000
  138.7247  151.5764  143.3183 C   0  0  0  0  0  0  0  0  0  0  0  0
  137.9184  152.3259  143.7535 C   0  0  0  0  0  0  0  0  0  0  0  0
  136.7531  151.7836  144.4567 C   0  0  0  0  0  0  0  0  0  0  0  0
  136.8362  150.4414  144.7132 C   0  0  0  0  0  0  0  0  0  0  0  0
  138.7265  150.3748  143.0129 C   0  0  0  0  0  0  0  0  0  0  0  0
  139.6213  149.6149  142.1899 C   0  0  0  0  0  0  0  0  0  0  0  0
  139.4306  149.9229  140.7679 C   0  0  0  0  0  0  0  0  0  0  0  0
  140.3821  150.4036  140.2243 C   0  0  0  0  0  0  0  0  0  0  0  0
  135.5133  152.2540  145.0495 C   0  0  0  0  0  0  0  0  0  0  0  0
  137.7560  149.6738  143.9546 N   0  0  0  0  0  0  0  0  0  0  0  0
  134.8629  152.0533  145.9449 C   0  0  0  0  0  0  0  0  0  0  0  0
  1  2  1  0
  2  3  2  0
  3  4  1  0
  1  5  2  0
  5  6  1  0
  6  7  1  0
  7  8  2  0
  3  9  1  0
  4 10  2  0
  5 10  1  0
  9 11  1  0
M  END
$$$$

     RDKit          3D

 12 13  0  0  0  0  0  0  0  0999 V2000
  140.3036  150.2147  139.4796 Cl  0  0  0  0  0  0  0  0  0  0  0  0
  138.6769  150.1876  140.5325 C   0  0  0  0  0  0  0  0  0  0  0  0
  137.6372  149.3844  140.0947 C   0  0  0  0  0  0  0  0  0  0  0  0
  138.7726  150.9306  141.6506 C   0  0  0  0  0  0  0  0  0  0  0  0
  137.6840  150.8870  142.5431 C   0  0  0  0  0  0  0  0  0  0  0  0
  136.5884  150.1098  142.1532 C   0  0  0  0  0  0  0  0  0  0  0  0
  137.6052  148.7876  138.8600 C   0  0  0  0  0  0  0  0  0  0  0  0
  137.7591  151.5386  144.0668 C   0  0  0  0  0  0  0  0  0  0  0  0
  135.4222  150.3657  143.1344 C   0  0  0  0  0  0  0  0  0  0  0  0
  136.4253  149.5276  140.9331 C   0  0  0  0  0  0  0  0  0  0  0  0
  136.6773  151.4485  144.7418 C   0  0  0  0  0  0  0  0  0  0  0  0
  135.4702  150.9495  144.3483 C   0  0  0  0  0  0  0  0  0  0  0  0
  1  2  1  0
  2  3  1  0
  2  4  2  0
  4  5  1  0
  5  6  2  0
  3  7  1  0
  5  8  1  0
  6  9  1  0
  3 10  2  0
  6 10  1  0
  8 11  2  0
  9 12  2  0
 11 12  1  0
M  END
$$$$

     RDKit          3D

 12 13  0  0  0  0  0  0  0  0999 V2000
  138.9699  151.3138  142.5680 C   0  0  0  0  0  0  0  0  0  0  0  0
  138.6028  152.0884  143.2652 C   0  0  0  0  0  0  0  0  0  0  0  0
  137.6691  151.8112  144.0575 C   0  0  0  0  0  0  0  0  0  0  0  0
  136.5758  152.7066  144.5957 C   0  0  0  0  0  0  0  0  0  0  0  0
  139.8386  151.3584  141.3360 C   0  0  0  0  0  0  0  0  0  0  0  0
  135.4778  152.3761  145.3561 C   0  0  0  0  0  0  0  0  0  0  0  0
  135.5311  150.9302  145.6901 C   0  0  0  0  0  0  0  0  0  0  0  0
  137.2472  150.4901  144.6565 C   0  0  0  0  0  0  0  0  0  0  0  0
  138.3749  149.5781  144.2436 C   0  0  0  0  0  0  0  0  0  0  0  0
  136.4326  150.0163  145.4821 C   0  0  0  0  0  0  0  0  0  0  0  0
  139.5334  150.5299  140.1895 C   0  0  0  0  0  0  0  0  0  0  0  0
  138.9975  149.7928  143.0607 C   0  0  0  0  0  0  0  0  0  0  0  0
  1  2  2  0
  2  3  1  0
  3  4  1  0
  1  5  1  0
  4  6  2  0
  6  7  1  0
  3  8  2  0
  8  9  1  0
  7 10  2  0
  8 10  1  0
  5 11  1  0
  1 12  1  0
  9 12  2  0
M  END
$$$$

     RDKit          3D

 12 13  0  0  0  0  0  0  0  0999 V2000
  140.8778  150.5419  139.7337 Cl  0  0  0  0  0  0  0  0  0  0  0  0
  138.9614  150.5329  140.4448 C   0  0  0  0  0  0  0  0  0  0  0  0
  138.2154  149.5089  139.9489 C   0  0  0  0  0  0  0  0  0  0  0  0
  139.1215  151.1800  141.6231 C   0  0  0  0  0  0  0  0  0  0  0  0
  138.0837  150.9004  142.5999 C   0  0  0  0  0  0  0  0  0  0  0  0
  137.1000  149.9215  142.1731 C   0  0  0  0  0  0  0  0  0  0  0  0
  135.9904  149.8133  143.1128 C   0  0  0  0  0  0  0  0  0  0  0  0
  136.2020  150.8803  144.1689 C   0  0  0  0  0  0  0  0  0  0  0  0
  136.9981  149.3556  140.8690 C   0  0  0  0  0  0  0  0  0  0  0  0
  135.7527  151.0925  145.3671 C   0  0  0  0  0  0  0  0  0  0  0  0
  137.8401  151.5690  143.8865 C   0  0  0  0  0  0  0  0  0  0  0  0
  134.4140  150.9534  145.7072 C   0  0  0  0  0  0  0  0  0  0  0  0
  1  2  1  0
  2  3  2  0
  2  4  1  0
  4  5  2  0
  5  6  1  0
  6  7  1  0
  7  8  1  0
  3  9  1  0
  6  9  2  0
  8 10  2  3
  5 11  1  0
  8 11  1  0
 10 12  1  0
M  END
$$$$

     RDKit          3D

 12 12  0  0  0  0  0  0  0  0999 V2000
  138.9699  151.3138  142.5680 C   0  0  0  0  0  0  0  0  0  0  0  0
  138.6028  152.0884  143.2652 C   0  0  0  0  0  0  0  0  0  0  0  0
  137.6691  151.8112  144.0575 C   0  0  0  0  0  0  0  0  0  0  0  0
  136.5758  152.7066  144.5957 C   0  0  0  0  0  0  0  0  0  0  0  0
  135.5865  152.4520  145.5239 C   0  0  0  0  0  0  0  0  0  0  0  0
  139.9119  151.4259  141.3573 C   0  0  0  0  0  0  0  0  0  0  0  0
  135.6786  150.9924  145.8717 C   0  0  0  0  0  0  0  0  0  0  0  0
  137.2576  150.5094  144.6898 C   0  0  0  0  0  0  0  0  0  0  0  0
  139.6716  150.6607  140.2603 C   0  0  0  0  0  0  0  0  0  0  0  0
  134.6632  150.7341  146.9484 C   0  0  0  0  0  0  0  0  0  0  0  0
  136.4492  150.1358  145.5795 C   0  0  0  0  0  0  0  0  0  0  0  0
  138.4422  150.2524  139.8987 C   0  0  0  0  0  0  0  0  0  0  0  0
  1  2  2  3
  2  3  1  0
  3  4  1  0
  4  5  2  0
  1  6  1  0
  5  7  1  0
  3  8  2  0
  6  9  1  0
  7 10  1  0
  7 11  2  0
  8 11  1  0
  9 12  1  0
M  END
$$$$

     RDKit          3D

 12 13  0  0  0  0  0  0  0  0999 V2000
  138.9699  151.3138  142.5680 C   0  0  0  0  0  0  0  0  0  0  0  0
  138.6028  152.0884  143.2652 C   0  0  0  0  0  0  0  0  0  0  0  0
  137.4868  151.7382  144.1979 C   0  0  0  0  0  0  0  0  0  0  0  0
  139.9964  151.3955  141.4280 C   0  0  0  0  0  0  0  0  0  0  0  0
  139.7128  150.7435  140.2231 C   0  0  0  0  0  0  0  0  0  0  0  0
  138.4716  149.8474  142.3649 C   0  0  0  0  0  0  0  0  0  0  0  0
  137.8335  149.4050  143.5506 C   0  0  0  0  0  0  0  0  0  0  0  0
  138.6857  149.2481  141.2052 C   0  0  0  0  0  0  0  0  0  0  0  0
  140.5770  151.2340  139.0918 C   0  0  0  0  0  0  0  0  0  0  0  0
  137.2665  150.3710  144.4636 C   0  0  0  0  0  0  0  0  0  0  0  0
  139.3355  149.7632  140.1826 C   0  0  0  0  0  0  0  0  0  0  0  0
  136.8921  152.7548  145.2328 C   0  0  0  0  0  0  0  0  0  0  0  0
  1  2  1  0
  2  3  2  0
  1  4  1  0
  4  5  2  0
  1  6  2  0
  6  7  1  0
  6  8  1  0
  5  9  1  0
  3 10  1  0
  7 10  2  0
  5 11  1  0
  8 11  2  0
  3 12  1  0
M  END
$$$$

     RDKit          3D

 12 13  0  0  0  0  0  0  0  0999 V2000
  140.3036  150.2147  139.4796 Cl  0  0  0  0  0  0  0  0  0  0  0  0
  138.6769  150.1876  140.5325 C   0  0  0  0  0  0  0  0  0  0  0  0
  137.6372  149.3844  140.0947 C   0  0  0  0  0  0  0  0  0  0  0  0
  139.2395  150.7156  141.5763 C   0  0  0  0  0  0  0  0  0  0  0  0
  138.3571  151.0517  142.3779 C   0  0  0  0  0  0  0  0  0  0  0  0
  138.6018  151.8083  143.7098 C   0  0  0  0  0  0  0  0  0  0  0  0
  136.9753  150.7063  142.3295 C   0  0  0  0  0  0  0  0  0  0  0  0
  135.8975  151.0585  143.3008 C   0  0  0  0  0  0  0  0  0  0  0  0
  136.5423  149.8130  140.9255 C   0  0  0  0  0  0  0  0  0  0  0  0
  137.5416  151.8924  144.5821 C   0  0  0  0  0  0  0  0  0  0  0  0
  136.4374  151.6548  144.4139 C   0  0  0  0  0  0  0  0  0  0  0  0
  135.0356  152.0145  145.5034 Cl  0  0  0  0  0  0  0  0  0  0  0  0
  1  2  1  0
  2  3  1  0
  2  4  2  0
  4  5  1  0
  5  6  1  0
  5  7  2  0
  7  8  1  0
  3  9  2  0
  7  9  1  0
  6 10  2  0
  8 11  2  0
 10 11  1  0
 11 12  1  0
M  END
$$$$

     RDKit          3D

 12 13  0  0  0  0  0  0  0  0999 V2000
  138.9699  151.3138  142.5680 C   0  0  0  0  0  0  0  0  0  0  0  0
  138.6028  152.0884  143.2652 C   0  0  0  0  0  0  0  0  0  0  0  0
  137.6691  151.8112  144.0575 C   0  0  0  0  0  0  0  0  0  0  0  0
  138.4235  149.9012  142.6327 C   0  0  0  0  0  0  0  0  0  0  0  0
  137.0734  152.8264  144.9913 C   0  0  0  0  0  0  0  0  0  0  0  0
  136.9864  150.5702  144.2026 C   0  0  0  0  0  0  0  0  0  0  0  0
  140.0484  151.4746  141.4463 C   0  0  0  0  0  0  0  0  0  0  0  0
  136.0243  150.3000  145.2317 C   0  0  0  0  0  0  0  0  0  0  0  0
  137.3987  149.6359  143.5981 N   0  0  0  0  0  0  0  0  0  0  0  0
  139.9981  150.5805  140.3374 C   0  0  0  0  0  0  0  0  0  0  0  0
  135.8829  152.7889  145.6072 C   0  0  0  0  0  0  0  0  0  0  0  0
  135.4701  151.5439  145.8513 C   0  0  0  0  0  0  0  0  0  0  0  0
  1  2  2  0
  2  3  1  0
  1  4  1  0
  3  5  1  0
  3  6  2  0
  1  7  1  0
  6  8  1  0
  4  9  2  0
  6  9  1  0
  7 10  1  0
  5 11  2  0
  8 12  2  0
 11 12  1  0
M  END
$$$$

     RDKit          3D

 12 13  0  0  0  0  0  0  0  0999 V2000
  139.2623  151.0928  142.4045 C   0  0  0  0  0  0  0  0  0  0  0  0
  138.8616  152.1314  142.9035 C   0  0  0  0  0  0  0  0  0  0  0  0
  137.9123  151.7989  143.7814 C   0  0  0  0  0  0  0  0  0  0  0  0
  138.8307  150.4000  141.6050 C   0  0  0  0  0  0  0  0  0  0  0  0
  137.6881  149.9457  141.7522 C   0  0  0  0  0  0  0  0  0  0  0  0
  137.5093  152.6054  144.9569 C   0  0  0  0  0  0  0  0  0  0  0  0
  136.2294  152.8169  145.1366 C   0  0  0  0  0  0  0  0  0  0  0  0
  136.7612  150.7584  143.6309 C   0  0  0  0  0  0  0  0  0  0  0  0
  135.7274  151.1221  144.5705 C   0  0  0  0  0  0  0  0  0  0  0  0
  136.6201  150.1298  142.6216 C   0  0  0  0  0  0  0  0  0  0  0  0
  139.6851  150.0828  140.3873 C   0  0  0  0  0  0  0  0  0  0  0  0
  139.1156  149.9759  139.1871 C   0  0  0  0  0  0  0  0  0  0  0  0
  1  2  1  0
  2  3  2  0
  1  4  2  0
  4  5  1  0
  3  6  1  0
  6  7  2  0
  3  8  1  0
  7  9  1  0
  8  9  1  0
  5 10  1  0
  8 10  2  0
  4 11  1  0
 11 12  2  0
M  END
$$$$

     RDKit          3D

 12 13  0  0  0  0  0  0  0  0999 V2000
  140.8778  150.5419  139.7337 Cl  0  0  0  0  0  0  0  0  0  0  0  0
  138.9614  150.5329  140.4448 C   0  0  0  0  0  0  0  0  0  0  0  0
  138.2154  149.5089  139.9489 C   0  0  0  0  0  0  0  0  0  0  0  0
  139.1215  151.1800  141.6231 C   0  0  0  0  0  0  0  0  0  0  0  0
  138.4409  150.9839  142.4827 C   0  0  0  0  0  0  0  0  0  0  0  0
  137.3041  149.9252  142.2693 C   0  0  0  0  0  0  0  0  0  0  0  0
  136.3910  149.8005  143.3483 C   0  0  0  0  0  0  0  0  0  0  0  0
  136.8248  150.0544  144.6651 C   0  0  0  0  0  0  0  0  0  0  0  0
  137.1159  149.3927  140.9659 C   0  0  0  0  0  0  0  0  0  0  0  0
  136.7528  151.4306  144.9962 C   0  0  0  0  0  0  0  0  0  0  0  0
  137.5242  152.3020  144.4243 C   0  0  0  0  0  0  0  0  0  0  0  0
  138.2946  151.8168  143.7065 C   0  0  0  0  0  0  0  0  0  0  0  0
  1  2  1  0
  2  3  2  0
  2  4  1  0
  4  5  2  0
  5  6  1  0
  6  7  1  0
  7  8  1  0
  3  9  1  0
  6  9  2  0
  8 10  1  0
 10 11  1  0
  5 12  1  0
 11 12  2  0
M  END
$$$$

     RDKit          3D

 12 13  0  0  0  0  0  0  0  0999 V2000
  138.9699  151.3138  142.5680 C   0  0  0  0  0  0  0  0  0  0  0  0
  138.6028  152.0884  143.2652 C   0  0  0  0  0  0  0  0  0  0  0  0
  137.4868  151.7382  144.1979 C   0  0  0  0  0  0  0  0  0  0  0  0
  139.9964  151.3955  141.4280 C   0  0  0  0  0  0  0  0  0  0  0  0
  137.1558  150.3526  144.0264 C   0  0  0  0  0  0  0  0  0  0  0  0
  139.6376  150.7227  140.2351 C   0  0  0  0  0  0  0  0  0  0  0  0
  138.1369  149.9837  142.5220 C   0  0  0  0  0  0  0  0  0  0  0  0
  138.6490  149.8790  140.0582 C   0  0  0  0  0  0  0  0  0  0  0  0
  137.7311  149.4745  140.8941 C   0  0  0  0  0  0  0  0  0  0  0  0
  136.8281  152.4085  145.2241 C   0  0  0  0  0  0  0  0  0  0  0  0
  138.3839  149.3132  138.7890 C   0  0  0  0  0  0  0  0  0  0  0  0
  137.1582  148.7139  138.6078 C   0  0  0  0  0  0  0  0  0  0  0  0
  1  2  1  0
  2  3  2  0
  1  4  1  0
  3  5  1  0
  4  6  2  0
  1  7  2  0
  5  7  1  0
  6  8  1  0
  7  9  1  0
  8  9  1  0
  3 10  1  0
  8 11  2  3
 11 12  1  0
M  END
$$$$

     RDKit          3D

 12 13  0  0  0  0  0  0  0  0999 V2000
  140.8778  150.5419  139.7337 Cl  0  0  0  0  0  0  0  0  0  0  0  0
  138.9614  150.5329  140.4448 C   0  0  0  0  0  0  0  0  0  0  0  0
  138.2154  149.5089  139.9489 C   0  0  0  0  0  0  0  0  0  0  0  0
  139.1215  151.1800  141.6231 C   0  0  0  0  0  0  0  0  0  0  0  0
  138.4409  150.9839  142.4827 C   0  0  0  0  0  0  0  0  0  0  0  0
  137.3041  149.9252  142.2693 C   0  0  0  0  0  0  0  0  0  0  0  0
  137.9688  148.9892  138.7746 C   0  0  0  0  0  0  0  0  0  0  0  0
  136.4228  149.8238  143.4177 C   0  0  0  0  0  0  0  0  0  0  0  0
  137.1007  149.3978  141.0662 C   0  0  0  0  0  0  0  0  0  0  0  0
  138.5651  151.5921  144.0069 C   0  0  0  0  0  0  0  0  0  0  0  0
  137.3737  151.9271  144.5111 C   0  0  0  0  0  0  0  0  0  0  0  0
  136.4155  150.8117  144.6280 C   0  0  0  0  0  0  0  0  0  0  0  0
  1  2  1  0
  2  3  2  0
  2  4  1  0
  4  5  2  0
  5  6  1  0
  3  7  1  0
  6  8  1  0
  3  9  1  0
  6  9  2  0
  5 10  1  0
 10 11  1  0
  8 12  1  0
 11 12  1  0
M  END
$$$$

     RDKit          3D

 12 13  0  0  0  0  0  0  0  0999 V2000
  138.9699  151.3138  142.5680 C   0  0  0  0  0  0  0  0  0  0  0  0
  138.6028  152.0884  143.2652 C   0  0  0  0  0  0  0  0  0  0  0  0
  137.4868  151.7382  144.1979 C   0  0  0  0  0  0  0  0  0  0  0  0
  139.9964  151.3955  141.4280 C   0  0  0  0  0  0  0  0  0  0  0  0
  137.1558  150.3526  144.0264 C   0  0  0  0  0  0  0  0  0  0  0  0
  139.8257  150.4770  140.3147 C   0  0  0  0  0  0  0  0  0  0  0  0
  138.8512  149.5063  140.5932 C   0  0  0  0  0  0  0  0  0  0  0  0
  138.3038  149.9668  142.1890 C   0  0  0  0  0  0  0  0  0  0  0  0
  136.6776  152.3989  145.1422 C   0  0  0  0  0  0  0  0  0  0  0  0
  135.5839  151.7904  145.6223 C   0  0  0  0  0  0  0  0  0  0  0  0
  136.9377  153.6960  145.3625 C   0  0  0  0  0  0  0  0  0  0  0  0
  137.7402  149.7103  143.0058 N   0  0  0  0  0  0  0  0  0  0  0  0
  1  2  1  0
  2  3  2  0
  1  4  1  0
  3  5  1  0
  4  6  2  0
  6  7  1  0
  1  8  2  0
  7  8  1  0
  3  9  1  0
  9 10  1  0
  9 11  2  0
  5 12  2  0
  8 12  1  0
M  END
$$$$

     RDKit          3D

 12 12  0  0  0  0  0  0  0  0999 V2000
  138.7247  151.5764  143.3183 C   0  0  0  0  0  0  0  0  0  0  0  0
  137.9184  152.3259  143.7535 C   0  0  0  0  0  0  0  0  0  0  0  0
  136.7531  151.7836  144.4567 C   0  0  0  0  0  0  0  0  0  0  0  0
  138.5775  150.7791  142.3582 C   0  0  0  0  0  0  0  0  0  0  0  0
  137.2455  150.1175  142.4698 C   0  0  0  0  0  0  0  0  0  0  0  0
  136.7130  149.1947  141.6080 C   0  0  0  0  0  0  0  0  0  0  0  0
  136.3425  150.6844  143.5477 C   0  0  0  0  0  0  0  0  0  0  0  0
  135.8100  152.3858  145.2765 C   0  0  0  0  0  0  0  0  0  0  0  0
  134.8822  151.6626  145.8726 C   0  0  0  0  0  0  0  0  0  0  0  0
  136.3358  153.5010  145.5053 O   0  0  0  0  0  0  0  0  0  0  0  0
  139.5949  150.1265  141.4503 C   0  0  0  0  0  0  0  0  0  0  0  0
  139.6218  150.6553  140.1585 C   0  0  0  0  0  0  0  0  0  0  0  0
  1  2  1  0
  2  3  2  0
  1  4  2  0
  4  5  1  0
  5  6  1  0
  3  7  1  0
  5  7  2  0
  3  8  1  0
  8  9  1  0
  8 10  2  0
  4 11  1  0
 11 12  1  0
M  END
$$$$

     RDKit          3D

 12 12  0  0  0  0  0  0  0  0999 V2000
  138.7247  151.5764  143.3183 C   0  0  0  0  0  0  0  0  0  0  0  0
  137.9184  152.3259  143.7535 C   0  0  0  0  0  0  0  0  0  0  0  0
  136.7531  151.7836  144.4567 C   0  0  0  0  0  0  0  0  0  0  0  0
  136.8362  150.4414  144.7132 C   0  0  0  0  0  0  0  0  0  0  0  0
  138.7265  150.3748  143.0129 C   0  0  0  0  0  0  0  0  0  0  0  0
  139.6213  149.6149  142.1899 C   0  0  0  0  0  0  0  0  0  0  0  0
  139.7409  150.2983  140.9082 C   0  0  0  0  0  0  0  0  0  0  0  0
  137.7193  149.6243  143.8410 C   0  0  0  0  0  0  0  0  0  0  0  0
  135.5687  152.5339  145.0725 C   0  0  0  0  0  0  0  0  0  0  0  0
  140.1962  149.5769  139.7165 C   0  0  0  0  0  0  0  0  0  0  0  0
  141.3855  149.3974  139.4301 C   0  0  0  0  0  0  0  0  0  0  0  0
  139.2039  150.0736  138.9115 C   0  0  0  0  0  0  0  0  0  0  0  0
  1  2  1  0
  2  3  2  0
  3  4  1  0
  1  5  2  0
  5  6  1  0
  6  7  1  0
  4  8  2  0
  5  8  1  0
  3  9  1  0
  7 10  1  0
 10 11  1  0
 10 12  1  0
M  END
$$$$

     RDKit          3D

 12 12  0  0  0  0  0  0  0  0999 V2000
  140.8778  150.5419  139.7337 Cl  0  0  0  0  0  0  0  0  0  0  0  0
  138.9614  150.5329  140.4448 C   0  0  0  0  0  0  0  0  0  0  0  0
  138.2154  149.5089  139.9489 C   0  0  0  0  0  0  0  0  0  0  0  0
  138.9058  151.3604  141.4410 C   0  0  0  0  0  0  0  0  0  0  0  0
  137.7037  151.1653  142.2004 C   0  0  0  0  0  0  0  0  0  0  0  0
  137.6067  151.8428  143.5371 C   0  0  0  0  0  0  0  0  0  0  0  0
  138.3430  148.9052  138.7322 C   0  0  0  0  0  0  0  0  0  0  0  0
  136.3884  151.8014  144.2972 C   0  0  0  0  0  0  0  0  0  0  0  0
  135.6332  150.9001  144.3783 C   0  0  0  0  0  0  0  0  0  0  0  0
  136.4502  152.7384  145.4606 C   0  0  0  0  0  0  0  0  0  0  0  0
  136.9042  149.3528  140.6418 C   0  0  0  0  0  0  0  0  0  0  0  0
  136.7622  150.2064  141.7082 C   0  0  0  0  0  0  0  0  0  0  0  0
  1  2  1  0
  2  3  1  0
  2  4  2  0
  4  5  1  0
  5  6  1  0
  3  7  1  0
  6  8  1  0
  8  9  2  0
  8 10  1  0
  3 11  2  0
  5 12  2  0
 11 12  1  0
M  END
$$$$

     RDKit          3D

 12 13  0  0  0  0  0  0  0  0999 V2000
  140.8778  150.5419  139.7337 Cl  0  0  0  0  0  0  0  0  0  0  0  0
  138.9614  150.5329  140.4448 C   0  0  0  0  0  0  0  0  0  0  0  0
  138.2154  149.5089  139.9489 C   0  0  0  0  0  0  0  0  0  0  0  0
  139.1215  151.1800  141.6231 C   0  0  0  0  0  0  0  0  0  0  0  0
  138.4409  150.9839  142.4827 C   0  0  0  0  0  0  0  0  0  0  0  0
  137.3041  149.9252  142.2693 C   0  0  0  0  0  0  0  0  0  0  0  0
  136.3910  149.8005  143.3483 C   0  0  0  0  0  0  0  0  0  0  0  0
  136.8248  150.0544  144.6651 C   0  0  0  0  0  0  0  0  0  0  0  0
  137.1159  149.3927  140.9659 C   0  0  0  0  0  0  0  0  0  0  0  0
  136.7528  151.4306  144.9962 C   0  0  0  0  0  0  0  0  0  0  0  0
  137.5242  152.3020  144.4243 C   0  0  0  0  0  0  0  0  0  0  0  0
  138.2946  151.8168  143.7065 C   0  0  0  0  0  0  0  0  0  0  0  0
  1  2  1  0
  2  3  2  0
  2  4  1  0
  4  5  2  0
  5  6  1  0
  6  7  1  0
  7  8  1  0
  3  9  1  0
  6  9  2  0
  8 10  1  0
 10 11  1  0
  5 12  1  0
 11 12  1  0
M  END
$$$$

     RDKit          3D

 12 13  0  0  0  0  0  0  0  0999 V2000
  138.9699  151.3138  142.5680 C   0  0  0  0  0  0  0  0  0  0  0  0
  138.6028  152.0884  143.2652 C   0  0  0  0  0  0  0  0  0  0  0  0
  137.4868  151.7382  144.1979 C   0  0  0  0  0  0  0  0  0  0  0  0
  139.9964  151.3955  141.4280 C   0  0  0  0  0  0  0  0  0  0  0  0
  137.1558  150.3526  144.0264 C   0  0  0  0  0  0  0  0  0  0  0  0
  139.8257  150.4770  140.3147 C   0  0  0  0  0  0  0  0  0  0  0  0
  138.8512  149.5063  140.5932 C   0  0  0  0  0  0  0  0  0  0  0  0
  137.7374  149.6559  143.0313 C   0  0  0  0  0  0  0  0  0  0  0  0
  138.2708  148.9617  139.6251 C   0  0  0  0  0  0  0  0  0  0  0  0
  138.4746  149.9892  142.1411 C   0  0  0  0  0  0  0  0  0  0  0  0
  140.6723  150.4281  139.2084 C   0  0  0  0  0  0  0  0  0  0  0  0
  136.9570  152.6371  145.3479 C   0  0  0  0  0  0  0  0  0  0  0  0
  1  2  1  0
  2  3  2  0
  1  4  1  0
  3  5  1  0
  4  6  2  0
  6  7  1  0
  5  8  2  0
  7  9  1  0
  1 10  2  0
  7 10  1  0
  8 10  1  0
  6 11  1  0
  3 12  1  0
M  END
$$$$

     RDKit          3D

 12 13  0  0  0  0  0  0  0  0999 V2000
  140.8778  150.5419  139.7337 Cl  0  0  0  0  0  0  0  0  0  0  0  0
  138.9614  150.5329  140.4448 C   0  0  0  0  0  0  0  0  0  0  0  0
  138.2154  149.5089  139.9489 C   0  0  0  0  0  0  0  0  0  0  0  0
  139.1215  151.1800  141.6231 C   0  0  0  0  0  0  0  0  0  0  0  0
  138.0837  150.9004  142.5999 C   0  0  0  0  0  0  0  0  0  0  0  0
  137.1000  149.9215  142.1731 C   0  0  0  0  0  0  0  0  0  0  0  0
  135.9904  149.8133  143.1128 C   0  0  0  0  0  0  0  0  0  0  0  0
  136.2020  150.8803  144.1689 C   0  0  0  0  0  0  0  0  0  0  0  0
  138.1207  151.4578  143.7958 C   0  0  0  0  0  0  0  0  0  0  0  0
  137.1637  151.3980  144.6800 C   0  0  0  0  0  0  0  0  0  0  0  0
  138.1476  149.0068  138.7202 C   0  0  0  0  0  0  0  0  0  0  0  0
  136.9504  149.2725  140.9237 C   0  0  0  0  0  0  0  0  0  0  0  0
  1  2  1  0
  2  3  2  0
  2  4  1  0
  4  5  2  0
  5  6  1  0
  6  7  1  0
  7  8  1  0
  5  9  1  0
  8 10  2  0
  9 10  1  0
  3 11  1  0
  3 12  1  0
  6 12  2  0
M  END
$$$$

     RDKit          3D

 12 12  0  0  0  0  0  0  0  0999 V2000
  138.9699  151.3138  142.5680 C   0  0  0  0  0  0  0  0  0  0  0  0
  138.6028  152.0884  143.2652 C   0  0  0  0  0  0  0  0  0  0  0  0
  137.6691  151.8112  144.0575 C   0  0  0  0  0  0  0  0  0  0  0  0
  136.5758  152.7066  144.5957 C   0  0  0  0  0  0  0  0  0  0  0  0
  135.5865  152.4520  145.5239 C   0  0  0  0  0  0  0  0  0  0  0  0
  139.9119  151.4259  141.3573 C   0  0  0  0  0  0  0  0  0  0  0  0
  135.6786  150.9924  145.8717 C   0  0  0  0  0  0  0  0  0  0  0  0
  137.2821  150.4143  144.6542 C   0  0  0  0  0  0  0  0  0  0  0  0
  138.3181  149.5410  144.1306 O   0  0  0  0  0  0  0  0  0  0  0  0
  139.7259  150.5519  140.2474 C   0  0  0  0  0  0  0  0  0  0  0  0
  140.6734  150.4338  139.2275 C   0  0  0  0  0  0  0  0  0  0  0  0
  136.4028  150.0437  145.5466 C   0  0  0  0  0  0  0  0  0  0  0  0
  1  2  2  3
  2  3  1  0
  3  4  1  0
  4  5  2  0
  1  6  1  0
  5  7  1  0
  3  8  2  0
  8  9  1  0
  6 10  2  3
 10 11  1  0
  7 12  2  0
  8 12  1  0
M  END
$$$$

     RDKit          3D

 12 12  0  0  0  0  0  0  0  0999 V2000
  140.8778  150.5419  139.7337 Cl  0  0  0  0  0  0  0  0  0  0  0  0
  138.9614  150.5329  140.4448 C   0  0  0  0  0  0  0  0  0  0  0  0
  138.2154  149.5089  139.9489 C   0  0  0  0  0  0  0  0  0  0  0  0
  138.9058  151.3604  141.4410 C   0  0  0  0  0  0  0  0  0  0  0  0
  137.7037  151.1653  142.2004 C   0  0  0  0  0  0  0  0  0  0  0  0
  137.6067  151.8428  143.5371 C   0  0  0  0  0  0  0  0  0  0  0  0
  138.3430  148.9052  138.7322 C   0  0  0  0  0  0  0  0  0  0  0  0
  136.8732  149.5699  140.4218 C   0  0  0  0  0  0  0  0  0  0  0  0
  136.4078  151.7648  144.2552 C   0  0  0  0  0  0  0  0  0  0  0  0
  136.7583  150.2943  141.5600 C   0  0  0  0  0  0  0  0  0  0  0  0
  135.2969  151.1913  143.8190 C   0  0  0  0  0  0  0  0  0  0  0  0
  136.5101  152.5471  145.5611 C   0  0  0  0  0  0  0  0  0  0  0  0
  1  2  1  0
  2  3  1  0
  2  4  2  0
  4  5  1  0
  5  6  1  0
  3  7  1  0
  3  8  2  0
  6  9  2  3
  5 10  2  0
  8 10  1  0
  9 11  1  0
  9 12  1  0
M  END
$$$$

     RDKit          3D

 12 13  0  0  0  0  0  0  0  0999 V2000
  140.8778  150.5419  139.7337 Cl  0  0  0  0  0  0  0  0  0  0  0  0
  138.9614  150.5329  140.4448 C   0  0  0  0  0  0  0  0  0  0  0  0
  138.2154  149.5089  139.9489 C   0  0  0  0  0  0  0  0  0  0  0  0
  139.1215  151.1800  141.6231 C   0  0  0  0  0  0  0  0  0  0  0  0
  138.4409  150.9839  142.4827 C   0  0  0  0  0  0  0  0  0  0  0  0
  137.3041  149.9252  142.2693 C   0  0  0  0  0  0  0  0  0  0  0  0
  136.3910  149.8005  143.3483 C   0  0  0  0  0  0  0  0  0  0  0  0
  136.8248  150.0544  144.6651 C   0  0  0  0  0  0  0  0  0  0  0  0
  137.1159  149.3927  140.9659 C   0  0  0  0  0  0  0  0  0  0  0  0
  136.7528  151.4306  144.9962 C   0  0  0  0  0  0  0  0  0  0  0  0
  137.5242  152.3020  144.4243 C   0  0  0  0  0  0  0  0  0  0  0  0
  138.5765  151.7496  143.5160 C   0  0  0  0  0  0  0  0  0  0  0  0
  1  2  1  0
  2  3  2  0
  2  4  1  0
  4  5  2  0
  5  6  1  0
  6  7  1  0
  7  8  1  0
  3  9  1  0
  6  9  2  0
  8 10  1  0
 10 11  2  0
  5 12  1  0
 11 12  1  0
M  END
$$$$

     RDKit          3D

 12 13  0  0  0  0  0  0  0  0999 V2000
  138.9699  151.3138  142.5680 C   0  0  0  0  0  0  0  0  0  0  0  0
  138.6028  152.0884  143.2652 C   0  0  0  0  0  0  0  0  0  0  0  0
  137.4868  151.7382  144.1979 C   0  0  0  0  0  0  0  0  0  0  0  0
  139.9964  151.3955  141.4280 C   0  0  0  0  0  0  0  0  0  0  0  0
  137.1558  150.3526  144.0264 C   0  0  0  0  0  0  0  0  0  0  0  0
  139.8257  150.4770  140.3147 C   0  0  0  0  0  0  0  0  0  0  0  0
  138.8512  149.5063  140.5932 C   0  0  0  0  0  0  0  0  0  0  0  0
  138.3038  149.9668  142.1890 C   0  0  0  0  0  0  0  0  0  0  0  0
  136.6776  152.3989  145.1422 C   0  0  0  0  0  0  0  0  0  0  0  0
  137.4662  149.4167  143.0946 C   0  0  0  0  0  0  0  0  0  0  0  0
  135.5137  151.9350  145.6076 C   0  0  0  0  0  0  0  0  0  0  0  0
  137.0549  153.6871  145.4389 C   0  0  0  0  0  0  0  0  0  0  0  0
  1  2  1  0
  2  3  2  0
  1  4  1  0
  3  5  1  0
  4  6  2  0
  6  7  1  0
  1  8  2  0
  7  8  1  0
  3  9  1  0
  5 10  2  0
  8 10  1  0
  9 11  1  0
  9 12  2  0
M  END
$$$$

     RDKit          3D

 12 13  0  0  0  0  0  0  0  0999 V2000
  140.8778  150.5419  139.7337 Cl  0  0  0  0  0  0  0  0  0  0  0  0
  138.9614  150.5329  140.4448 C   0  0  0  0  0  0  0  0  0  0  0  0
  138.2154  149.5089  139.9489 C   0  0  0  0  0  0  0  0  0  0  0  0
  139.1215  151.1800  141.6231 C   0  0  0  0  0  0  0  0  0  0  0  0
  138.4409  150.9839  142.4827 C   0  0  0  0  0  0  0  0  0  0  0  0
  137.3041  149.9252  142.2693 C   0  0  0  0  0  0  0  0  0  0  0  0
  136.3910  149.8005  143.3483 C   0  0  0  0  0  0  0  0  0  0  0  0
  136.8248  150.0544  144.6651 C   0  0  0  0  0  0  0  0  0  0  0  0
  136.9683  151.5255  144.8360 C   0  0  0  0  0  0  0  0  0  0  0  0
  137.1204  149.3911  140.9845 C   0  0  0  0  0  0  0  0  0  0  0  0
  138.1781  152.0175  144.1319 C   0  0  0  0  0  0  0  0  0  0  0  0
  135.7035  152.0199  144.5094 C   0  0  0  0  0  0  0  0  0  0  0  0
  1  2  1  0
  2  3  2  0
  2  4  1  0
  4  5  2  0
  5  6  1  0
  6  7  1  0
  7  8  1  0
  8  9  1  0
  3 10  1  0
  6 10  2  0
  5 11  1  0
  9 11  1  0
  9 12  1  0
M  END
$$$$

     RDKit          3D

 12 13  0  0  0  0  0  0  0  0999 V2000
  139.2623  151.0928  142.4045 C   0  0  0  0  0  0  0  0  0  0  0  0
  138.8616  152.1314  142.9035 C   0  0  0  0  0  0  0  0  0  0  0  0
  137.9123  151.7989  143.7814 C   0  0  0  0  0  0  0  0  0  0  0  0
  138.8307  150.4000  141.6050 C   0  0  0  0  0  0  0  0  0  0  0  0
  137.2917  150.4868  143.7063 C   0  0  0  0  0  0  0  0  0  0  0  0
  139.3794  149.8759  140.3266 C   0  0  0  0  0  0  0  0  0  0  0  0
  138.6892  149.8717  139.2606 C   0  0  0  0  0  0  0  0  0  0  0  0
  137.6550  149.7523  142.3325 C   0  0  0  0  0  0  0  0  0  0  0  0
  140.7565  149.7417  140.3340 C   0  0  0  0  0  0  0  0  0  0  0  0
  141.2218  149.8962  139.0875 C   0  0  0  0  0  0  0  0  0  0  0  0
  140.4657  150.1152  138.0178 C   0  0  0  0  0  0  0  0  0  0  0  0
  139.1328  149.9617  137.9915 C   0  0  0  0  0  0  0  0  0  0  0  0
  1  2  1  0
  2  3  2  0
  1  4  2  0
  3  5  1  0
  4  6  1  0
  6  7  1  0
  4  8  1  0
  5  8  2  0
  6  9  2  0
  9 10  1  0
 10 11  2  0
  7 12  2  0
 11 12  1  0
M  END
$$$$

     RDKit          3D

 12 13  0  0  0  0  0  0  0  0999 V2000
  138.7092  151.1474  142.6270 C   0  0  0  0  0  0  0  0  0  0  0  0
  138.5252  151.9373  143.5111 C   0  0  0  0  0  0  0  0  0  0  0  0
  137.4746  151.6736  144.4636 C   0  0  0  0  0  0  0  0  0  0  0  0
  138.0112  149.8671  142.4730 C   0  0  0  0  0  0  0  0  0  0  0  0
  136.7207  150.4820  144.2961 C   0  0  0  0  0  0  0  0  0  0  0  0
  137.0165  149.5954  143.3275 C   0  0  0  0  0  0  0  0  0  0  0  0
  137.1308  152.6404  145.4946 C   0  0  0  0  0  0  0  0  0  0  0  0
  139.7954  151.3214  141.5588 C   0  0  0  0  0  0  0  0  0  0  0  0
  139.6343  150.8455  140.3344 C   0  0  0  0  0  0  0  0  0  0  0  0
  138.6084  150.0001  139.9900 C   0  0  0  0  0  0  0  0  0  0  0  0
  135.7840  152.8107  145.9081 C   0  0  0  0  0  0  0  0  0  0  0  0
  138.0915  149.1892  141.2028 N   0  0  0  0  0  0  0  0  0  0  0  0
  1  2  2  0
  2  3  1  0
  1  4  1  0
  3  5  2  0
  4  6  2  0
  5  6  1  0
  3  7  1  0
  1  8  1  0
  8  9  2  0
  9 10  1  0
  7 11  1  0
  4 12  1  0
 10 12  2  0
M  END
$$$$

     RDKit          3D

 12 13  0  0  0  0  0  0  0  0999 V2000
  140.8778  150.5419  139.7337 Cl  0  0  0  0  0  0  0  0  0  0  0  0
  138.9614  150.5329  140.4448 C   0  0  0  0  0  0  0  0  0  0  0  0
  138.2154  149.5089  139.9489 C   0  0  0  0  0  0  0  0  0  0  0  0
  139.1215  151.1800  141.6231 C   0  0  0  0  0  0  0  0  0  0  0  0
  138.0837  150.9004  142.5999 C   0  0  0  0  0  0  0  0  0  0  0  0
  137.1000  149.9215  142.1731 C   0  0  0  0  0  0  0  0  0  0  0  0
  135.9904  149.8133  143.1128 C   0  0  0  0  0  0  0  0  0  0  0  0
  136.2020  150.8803  144.1689 C   0  0  0  0  0  0  0  0  0  0  0  0
  138.1207  151.4578  143.7958 C   0  0  0  0  0  0  0  0  0  0  0  0
  137.1637  151.3980  144.6800 C   0  0  0  0  0  0  0  0  0  0  0  0
  138.1300  148.9973  138.7310 C   0  0  0  0  0  0  0  0  0  0  0  0
  136.8222  149.2417  141.0908 C   0  0  0  0  0  0  0  0  0  0  0  0
  1  2  1  0
  2  3  2  0
  2  4  1  0
  4  5  2  0
  5  6  1  0
  6  7  1  0
  7  8  1  0
  5  9  1  0
  8 10  2  0
  9 10  2  0
  3 11  1  0
  3 12  1  0
  6 12  2  0
M  END
$$$$

     RDKit          3D

 12 13  0  0  0  0  0  0  0  0999 V2000
  138.9699  151.3138  142.5680 C   0  0  0  0  0  0  0  0  0  0  0  0
  138.6028  152.0884  143.2652 C   0  0  0  0  0  0  0  0  0  0  0  0
  137.4868  151.7382  144.1979 C   0  0  0  0  0  0  0  0  0  0  0  0
  139.9964  151.3955  141.4280 C   0  0  0  0  0  0  0  0  0  0  0  0
  139.7128  150.7435  140.2231 C   0  0  0  0  0  0  0  0  0  0  0  0
  137.0980  150.3607  143.9160 C   0  0  0  0  0  0  0  0  0  0  0  0
  138.4640  149.8986  142.0939 C   0  0  0  0  0  0  0  0  0  0  0  0
  138.9093  149.6851  140.2985 C   0  0  0  0  0  0  0  0  0  0  0  0
  136.7346  152.3723  145.2066 C   0  0  0  0  0  0  0  0  0  0  0  0
  136.8762  153.6464  145.4225 C   0  0  0  0  0  0  0  0  0  0  0  0
  135.5258  151.9311  145.4410 C   0  0  0  0  0  0  0  0  0  0  0  0
  137.5270  149.3036  142.9412 N   0  0  0  0  0  0  0  0  0  0  0  0
  1  2  1  0
  2  3  2  0
  1  4  1  0
  4  5  2  0
  3  6  1  0
  1  7  2  0
  5  8  1  0
  7  8  1  0
  3  9  1  0
  9 10  1  0
  9 11  1  0
  6 12  1  0
  7 12  1  0
M  END
$$$$

     RDKit          3D

 12 13  0  0  0  0  0  0  0  0999 V2000
  138.9699  151.3138  142.5680 C   0  0  0  0  0  0  0  0  0  0  0  0
  138.6028  152.0884  143.2652 C   0  0  0  0  0  0  0  0  0  0  0  0
  137.4868  151.7382  144.1979 C   0  0  0  0  0  0  0  0  0  0  0  0
  139.9964  151.3955  141.4280 C   0  0  0  0  0  0  0  0  0  0  0  0
  137.1558  150.3526  144.0264 C   0  0  0  0  0  0  0  0  0  0  0  0
  139.8257  150.4770  140.3147 C   0  0  0  0  0  0  0  0  0  0  0  0
  138.8512  149.5063  140.5932 C   0  0  0  0  0  0  0  0  0  0  0  0
  138.3038  149.9668  142.1890 C   0  0  0  0  0  0  0  0  0  0  0  0
  136.6776  152.3989  145.1422 C   0  0  0  0  0  0  0  0  0  0  0  0
  137.4662  149.4167  143.0946 C   0  0  0  0  0  0  0  0  0  0  0  0
  135.5137  151.9350  145.6076 C   0  0  0  0  0  0  0  0  0  0  0  0
  136.9442  153.4472  145.4501 O   0  0  0  0  0  0  0  0  0  0  0  0
  1  2  1  0
  2  3  2  0
  1  4  1  0
  3  5  1  0
  4  6  2  0
  6  7  1  0
  1  8  2  0
  7  8  1  0
  3  9  1  0
  5 10  2  0
  8 10  1  0
  9 11  1  0
  9 12  2  0
M  END
$$$$

     RDKit          3D

 12 12  0  0  0  0  0  0  0  0999 V2000
  138.7247  151.5764  143.3183 C   0  0  0  0  0  0  0  0  0  0  0  0
  137.9184  152.3259  143.7535 C   0  0  0  0  0  0  0  0  0  0  0  0
  136.7531  151.7836  144.4567 C   0  0  0  0  0  0  0  0  0  0  0  0
  136.8362  150.4414  144.7132 C   0  0  0  0  0  0  0  0  0  0  0  0
  138.7265  150.3748  143.0129 C   0  0  0  0  0  0  0  0  0  0  0  0
  139.6213  149.6149  142.1899 C   0  0  0  0  0  0  0  0  0  0  0  0
  139.7409  150.2983  140.9082 C   0  0  0  0  0  0  0  0  0  0  0  0
  140.1745  149.5822  139.7375 C   0  0  0  0  0  0  0  0  0  0  0  0
  135.5022  152.2545  145.0499 C   0  0  0  0  0  0  0  0  0  0  0  0
  137.7231  149.6335  143.9402 N   0  0  0  0  0  0  0  0  0  0  0  0
  135.0474  153.4161  145.0681 C   0  0  0  0  0  0  0  0  0  0  0  0
  140.5726  150.4197  138.6690 C   0  0  0  0  0  0  0  0  0  0  0  0
  1  2  1  0
  2  3  2  0
  3  4  1  0
  1  5  2  0
  5  6  1  0
  6  7  1  0
  7  8  1  0
  3  9  1  0
  4 10  2  0
  5 10  1  0
  9 11  2  0
  8 12  1  0
M  END
$$$$

     RDKit          3D

 12 13  0  0  0  0  0  0  0  0999 V2000
  139.2623  151.0928  142.4045 C   0  0  0  0  0  0  0  0  0  0  0  0
  138.8616  152.1314  142.9035 C   0  0  0  0  0  0  0  0  0  0  0  0
  137.7829  151.8931  143.8930 C   0  0  0  0  0  0  0  0  0  0  0  0
  140.0683  150.9662  141.1540 C   0  0  0  0  0  0  0  0  0  0  0  0
  139.7970  150.5484  140.1018 C   0  0  0  0  0  0  0  0  0  0  0  0
  137.3714  150.5055  143.9905 C   0  0  0  0  0  0  0  0  0  0  0  0
  140.5294  150.5935  138.8561 C   0  0  0  0  0  0  0  0  0  0  0  0
  136.3579  150.2954  144.9989 C   0  0  0  0  0  0  0  0  0  0  0  0
  135.8365  151.5900  145.4651 C   0  0  0  0  0  0  0  0  0  0  0  0
  136.8561  152.4612  144.7441 C   0  0  0  0  0  0  0  0  0  0  0  0
  137.9377  149.6748  143.4763 N   0  0  0  0  0  0  0  0  0  0  0  0
  138.7429  149.7492  142.6212 C   0  0  0  0  0  0  0  0  0  0  0  0
  1  2  1  0
  2  3  2  0
  1  4  1  0
  4  5  2  3
  3  6  1  0
  5  7  1  0
  6  8  1  0
  8  9  2  0
  3 10  1  0
  9 10  1  0
  6 11  2  0
  1 12  2  0
 11 12  1  0
M  END
$$$$

     RDKit          3D

 12 13  0  0  0  0  0  0  0  0999 V2000
  139.5547  150.5070  140.4456 C   0  0  0  0  0  0  0  0  0  0  0  0
  139.2168  150.0153  139.3732 C   0  0  0  0  0  0  0  0  0  0  0  0
  138.8576  150.3067  141.5853 C   0  0  0  0  0  0  0  0  0  0  0  0
  137.9795  149.2997  139.2377 C   0  0  0  0  0  0  0  0  0  0  0  0
  139.3339  150.9307  142.8848 C   0  0  0  0  0  0  0  0  0  0  0  0
  138.3147  151.4954  143.6107 C   0  0  0  0  0  0  0  0  0  0  0  0
  137.0055  151.1295  143.2688 C   0  0  0  0  0  0  0  0  0  0  0  0
  137.5345  148.7786  138.0862 C   0  0  0  0  0  0  0  0  0  0  0  0
  136.7968  150.4005  142.1177 C   0  0  0  0  0  0  0  0  0  0  0  0
  135.2850  150.0737  141.8015 C   0  0  0  0  0  0  0  0  0  0  0  0
  137.5701  150.0094  141.3557 C   0  0  0  0  0  0  0  0  0  0  0  0
  137.1338  149.3932  140.3919 N   0  0  0  0  0  0  0  0  0  0  0  0
  1  2  2  0
  1  3  1  0
  2  4  1  0
  3  5  1  0
  5  6  2  0
  6  7  1  0
  4  8  1  0
  7  9  2  0
  9 10  1  0
  3 11  2  0
  9 11  1  0
  4 12  2  0
 11 12  1  0
M  END
$$$$

     RDKit          3D

 12 13  0  0  0  0  0  0  0  0999 V2000
  139.2623  151.0928  142.4045 C   0  0  0  0  0  0  0  0  0  0  0  0
  138.8616  152.1314  142.9035 C   0  0  0  0  0  0  0  0  0  0  0  0
  137.9123  151.7989  143.7814 C   0  0  0  0  0  0  0  0  0  0  0  0
  138.8307  150.4000  141.6050 C   0  0  0  0  0  0  0  0  0  0  0  0
  137.6881  149.9457  141.7522 C   0  0  0  0  0  0  0  0  0  0  0  0
  137.5093  152.6054  144.9569 C   0  0  0  0  0  0  0  0  0  0  0  0
  136.2294  152.8169  145.1366 C   0  0  0  0  0  0  0  0  0  0  0  0
  136.9209  149.3100  140.7028 C   0  0  0  0  0  0  0  0  0  0  0  0
  136.8325  150.7288  143.6621 C   0  0  0  0  0  0  0  0  0  0  0  0
  136.7813  150.2654  142.6241 C   0  0  0  0  0  0  0  0  0  0  0  0
  135.2783  151.8236  145.1417 C   0  0  0  0  0  0  0  0  0  0  0  0
  135.7009  150.6914  144.4601 C   0  0  0  0  0  0  0  0  0  0  0  0
  1  2  1  0
  2  3  2  0
  1  4  2  0
  4  5  1  0
  3  6  1  0
  6  7  2  0
  5  8  1  0
  3  9  1  0
  5 10  2  0
  9 10  1  0
  7 11  1  0
  9 12  1  0
 11 12  2  0
M  END
$$$$

     RDKit          3D

 12 12  0  0  0  0  0  0  0  0999 V2000
  138.7247  151.5764  143.3183 C   0  0  0  0  0  0  0  0  0  0  0  0
  137.9184  152.3259  143.7535 C   0  0  0  0  0  0  0  0  0  0  0  0
  136.7531  151.7836  144.4567 C   0  0  0  0  0  0  0  0  0  0  0  0
  136.8362  150.4414  144.7132 C   0  0  0  0  0  0  0  0  0  0  0  0
  138.7265  150.3748  143.0129 C   0  0  0  0  0  0  0  0  0  0  0  0
  135.9827  149.8124  145.6763 C   0  0  0  0  0  0  0  0  0  0  0  0
  139.5974  149.5764  142.2297 C   0  0  0  0  0  0  0  0  0  0  0  0
  139.7449  150.2202  140.9097 C   0  0  0  0  0  0  0  0  0  0  0  0
  140.1461  149.5005  139.7657 C   0  0  0  0  0  0  0  0  0  0  0  0
  135.9258  152.7276  145.1338 C   0  0  0  0  0  0  0  0  0  0  0  0
  140.6245  150.3654  138.7025 C   0  0  0  0  0  0  0  0  0  0  0  0
  137.6633  149.5933  143.8011 C   0  0  0  0  0  0  0  0  0  0  0  0
  1  2  1  0
  2  3  2  0
  3  4  1  0
  1  5  2  0
  4  6  1  0
  5  7  1  0
  7  8  1  0
  8  9  1  0
  3 10  1  0
  9 11  1  0
  4 12  2  0
  5 12  1  0
M  END
$$$$

     RDKit          3D

 12 12  0  0  0  0  0  0  0  0999 V2000
  138.7247  151.5764  143.3183 C   0  0  0  0  0  0  0  0  0  0  0  0
  137.9184  152.3259  143.7535 C   0  0  0  0  0  0  0  0  0  0  0  0
  136.7531  151.7836  144.4567 C   0  0  0  0  0  0  0  0  0  0  0  0
  136.8362  150.4414  144.7132 C   0  0  0  0  0  0  0  0  0  0  0  0
  138.7265  150.3748  143.0129 C   0  0  0  0  0  0  0  0  0  0  0  0
  139.6213  149.6149  142.1899 C   0  0  0  0  0  0  0  0  0  0  0  0
  139.7409  150.2983  140.9082 C   0  0  0  0  0  0  0  0  0  0  0  0
  137.7193  149.6243  143.8410 C   0  0  0  0  0  0  0  0  0  0  0  0
  140.2152  149.5788  139.7246 C   0  0  0  0  0  0  0  0  0  0  0  0
  135.7965  152.5892  145.1739 C   0  0  0  0  0  0  0  0  0  0  0  0
  139.8165  150.1801  138.4095 C   0  0  0  0  0  0  0  0  0  0  0  0
  134.6457  151.9973  145.7625 C   0  0  0  0  0  0  0  0  0  0  0  0
  1  2  1  0
  2  3  2  0
  3  4  1  0
  1  5  2  0
  5  6  1  0
  6  7  1  0
  4  8  2  0
  5  8  1  0
  7  9  1  0
  3 10  1  0
  9 11  1  0
 10 12  1  0
M  END
$$$$

     RDKit          3D

 12 13  0  0  0  0  0  0  0  0999 V2000
  140.3036  150.2147  139.4796 Cl  0  0  0  0  0  0  0  0  0  0  0  0
  138.6769  150.1876  140.5325 C   0  0  0  0  0  0  0  0  0  0  0  0
  137.6372  149.3844  140.0947 C   0  0  0  0  0  0  0  0  0  0  0  0
  139.2395  150.7156  141.5763 C   0  0  0  0  0  0  0  0  0  0  0  0
  138.3571  151.0517  142.3779 C   0  0  0  0  0  0  0  0  0  0  0  0
  136.5108  149.6332  140.9987 C   0  0  0  0  0  0  0  0  0  0  0  0
  138.6460  151.8147  143.7096 C   0  0  0  0  0  0  0  0  0  0  0  0
  137.6153  151.9265  144.6546 C   0  0  0  0  0  0  0  0  0  0  0  0
  136.4418  151.2576  144.3060 C   0  0  0  0  0  0  0  0  0  0  0  0
  135.4225  151.4094  145.3947 C   0  0  0  0  0  0  0  0  0  0  0  0
  136.7423  150.4583  142.2400 C   0  0  0  0  0  0  0  0  0  0  0  0
  135.8055  150.7365  143.2044 C   0  0  0  0  0  0  0  0  0  0  0  0
  1  2  1  0
  2  3  1  0
  2  4  2  0
  4  5  1  0
  3  6  2  0
  5  7  1  0
  7  8  2  0
  8  9  1  0
  9 10  1  0
  5 11  2  0
  6 11  1  0
  9 12  2  0
 11 12  1  0
M  END
$$$$

     RDKit          3D

 12 12  0  0  0  0  0  0  0  0999 V2000
  138.7092  151.1474  142.6270 C   0  0  0  0  0  0  0  0  0  0  0  0
  138.5252  151.9373  143.5111 C   0  0  0  0  0  0  0  0  0  0  0  0
  137.3814  151.6573  144.3961 C   0  0  0  0  0  0  0  0  0  0  0  0
  139.7031  151.1128  141.6105 C   0  0  0  0  0  0  0  0  0  0  0  0
  136.7531  152.5760  145.3055 C   0  0  0  0  0  0  0  0  0  0  0  0
  139.6217  150.4559  140.3336 C   0  0  0  0  0  0  0  0  0  0  0  0
  138.4482  149.6024  140.4479 C   0  0  0  0  0  0  0  0  0  0  0  0
  135.4545  152.3905  145.7642 C   0  0  0  0  0  0  0  0  0  0  0  0
  137.7393  150.1258  142.1790 C   0  0  0  0  0  0  0  0  0  0  0  0
  140.6487  150.5555  139.4463 C   0  0  0  0  0  0  0  0  0  0  0  0
  138.3109  148.9177  139.0875 C   0  0  0  0  0  0  0  0  0  0  0  0
  137.4993  149.5165  141.3097 C   0  0  0  0  0  0  0  0  0  0  0  0
  1  2  1  0
  2  3  2  3
  1  4  1  0
  3  5  1  0
  4  6  2  0
  6  7  1  0
  5  8  1  0
  1  9  2  0
  6 10  1  0
  7 11  1  0
  7 12  2  0
  9 12  1  0
M  END
$$$$

     RDKit          3D

 12 12  0  0  0  0  0  0  0  0999 V2000
  138.9699  151.3138  142.5680 C   0  0  0  0  0  0  0  0  0  0  0  0
  138.6028  152.0884  143.2652 C   0  0  0  0  0  0  0  0  0  0  0  0
  137.6691  151.8112  144.0575 C   0  0  0  0  0  0  0  0  0  0  0  0
  136.5758  152.7066  144.5957 C   0  0  0  0  0  0  0  0  0  0  0  0
  135.5865  152.4520  145.5239 C   0  0  0  0  0  0  0  0  0  0  0  0
  139.9119  151.4259  141.3573 C   0  0  0  0  0  0  0  0  0  0  0  0
  135.6786  150.9924  145.8717 C   0  0  0  0  0  0  0  0  0  0  0  0
  137.2821  150.4143  144.6542 C   0  0  0  0  0  0  0  0  0  0  0  0
  138.3181  149.5410  144.1306 O   0  0  0  0  0  0  0  0  0  0  0  0
  139.6268  150.6594  140.2399 C   0  0  0  0  0  0  0  0  0  0  0  0
  136.4095  149.9925  145.4771 C   0  0  0  0  0  0  0  0  0  0  0  0
  140.5814  150.2476  139.3418 C   0  0  0  0  0  0  0  0  0  0  0  0
  1  2  2  3
  2  3  1  0
  3  4  1  0
  4  5  2  0
  1  6  1  0
  5  7  1  0
  3  8  2  0
  8  9  1  0
  6 10  1  0
  7 11  2  0
  8 11  1  0
 10 12  2  0
M  END
$$$$

     RDKit          3D

 12 13  0  0  0  0  0  0  0  0999 V2000
  140.8778  150.5419  139.7337 Cl  0  0  0  0  0  0  0  0  0  0  0  0
  138.9614  150.5329  140.4448 C   0  0  0  0  0  0  0  0  0  0  0  0
  138.2154  149.5089  139.9489 C   0  0  0  0  0  0  0  0  0  0  0  0
  139.1215  151.1800  141.6231 C   0  0  0  0  0  0  0  0  0  0  0  0
  138.0837  150.9004  142.5999 C   0  0  0  0  0  0  0  0  0  0  0  0
  137.1000  149.9215  142.1731 C   0  0  0  0  0  0  0  0  0  0  0  0
  135.9904  149.8133  143.1128 C   0  0  0  0  0  0  0  0  0  0  0  0
  136.2020  150.8803  144.1689 C   0  0  0  0  0  0  0  0  0  0  0  0
  137.0013  149.3666  140.8539 C   0  0  0  0  0  0  0  0  0  0  0  0
  137.3955  151.5545  144.2321 C   0  0  0  0  0  0  0  0  0  0  0  0
  138.2983  151.3277  143.5028 N   0  0  0  0  0  0  0  0  0  0  0  0
  137.4017  152.3901  145.4721 O   0  0  0  0  0  0  0  0  0  0  0  0
  1  2  1  0
  2  3  2  0
  2  4  1  0
  4  5  2  0
  5  6  1  0
  6  7  1  0
  7  8  1  0
  3  9  1  0
  6  9  2  0
  8 10  1  0
  5 11  1  0
 10 11  1  0
 10 12  2  0
M  END
$$$$

     RDKit          3D

 12 12  0  0  0  0  0  0  0  0999 V2000
  138.7247  151.5764  143.3183 C   0  0  0  0  0  0  0  0  0  0  0  0
  137.9184  152.3259  143.7535 C   0  0  0  0  0  0  0  0  0  0  0  0
  136.7531  151.7836  144.4567 C   0  0  0  0  0  0  0  0  0  0  0  0
  136.8362  150.4414  144.7132 C   0  0  0  0  0  0  0  0  0  0  0  0
  138.7265  150.3748  143.0129 C   0  0  0  0  0  0  0  0  0  0  0  0
  139.6213  149.6149  142.1899 C   0  0  0  0  0  0  0  0  0  0  0  0
  139.7409  150.2983  140.9082 C   0  0  0  0  0  0  0  0  0  0  0  0
  140.1745  149.5822  139.7375 C   0  0  0  0  0  0  0  0  0  0  0  0
  135.5022  152.2545  145.0499 C   0  0  0  0  0  0  0  0  0  0  0  0
  140.5892  150.4398  138.6593 C   0  0  0  0  0  0  0  0  0  0  0  0
  137.8784  149.8542  143.8471 N   0  0  0  0  0  0  0  0  0  0  0  0
  134.8554  152.0200  145.9693 O   0  0  0  0  0  0  0  0  0  0  0  0
  1  2  1  0
  2  3  2  0
  3  4  1  0
  1  5  2  0
  5  6  1  0
  6  7  1  0
  7  8  1  0
  3  9  1  0
  8 10  1  0
  4 11  2  0
  5 11  1  0
  9 12  1  0
M  END
$$$$

     RDKit          3D

 12 13  0  0  0  0  0  0  0  0999 V2000
  140.8778  150.5419  139.7337 Cl  0  0  0  0  0  0  0  0  0  0  0  0
  138.9614  150.5329  140.4448 C   0  0  0  0  0  0  0  0  0  0  0  0
  138.2154  149.5089  139.9489 C   0  0  0  0  0  0  0  0  0  0  0  0
  139.1215  151.1800  141.6231 C   0  0  0  0  0  0  0  0  0  0  0  0
  138.0837  150.9004  142.5999 C   0  0  0  0  0  0  0  0  0  0  0  0
  138.0992  151.4525  143.9498 C   0  0  0  0  0  0  0  0  0  0  0  0
  137.0455  149.9998  142.1237 C   0  0  0  0  0  0  0  0  0  0  0  0
  135.8928  149.9571  142.9924 C   0  0  0  0  0  0  0  0  0  0  0  0
  136.9501  149.4766  140.7227 C   0  0  0  0  0  0  0  0  0  0  0  0
  136.9920  151.3724  144.6738 C   0  0  0  0  0  0  0  0  0  0  0  0
  137.0204  152.0408  145.9915 O   0  0  0  0  0  0  0  0  0  0  0  0
  135.8830  150.6522  144.2626 C   0  0  0  0  0  0  0  0  0  0  0  0
  1  2  1  0
  2  3  2  0
  2  4  1  0
  4  5  2  0
  5  6  1  0
  5  7  1  0
  7  8  1  0
  3  9  1  0
  7  9  2  0
  6 10  2  0
 10 11  1  0
  8 12  2  0
 10 12  1  0
M  END
$$$$

     RDKit          3D

 12 13  0  0  0  0  0  0  0  0999 V2000
  140.8778  150.5419  139.7337 Cl  0  0  0  0  0  0  0  0  0  0  0  0
  138.9614  150.5329  140.4448 C   0  0  0  0  0  0  0  0  0  0  0  0
  138.2154  149.5089  139.9489 C   0  0  0  0  0  0  0  0  0  0  0  0
  139.1215  151.1800  141.6231 C   0  0  0  0  0  0  0  0  0  0  0  0
  138.0837  150.9004  142.5999 C   0  0  0  0  0  0  0  0  0  0  0  0
  137.1000  149.9215  142.1731 C   0  0  0  0  0  0  0  0  0  0  0  0
  135.9904  149.8133  143.1128 C   0  0  0  0  0  0  0  0  0  0  0  0
  136.2020  150.8803  144.1689 C   0  0  0  0  0  0  0  0  0  0  0  0
  137.0013  149.3666  140.8539 C   0  0  0  0  0  0  0  0  0  0  0  0
  135.7607  151.0885  145.3687 C   0  0  0  0  0  0  0  0  0  0  0  0
  135.6414  152.1685  145.9481 C   0  0  0  0  0  0  0  0  0  0  0  0
  137.7449  151.5149  143.8703 C   0  0  0  0  0  0  0  0  0  0  0  0
  1  2  1  0
  2  3  2  0
  2  4  1  0
  4  5  2  0
  5  6  1  0
  6  7  1  0
  7  8  1  0
  3  9  1  0
  6  9  2  0
  8 10  1  0
 10 11  2  0
  5 12  1  0
  8 12  1  0
M  END
$$$$

     RDKit          3D

 12 13  0  0  0  0  0  0  0  0999 V2000
  139.2623  151.0928  142.4045 C   0  0  0  0  0  0  0  0  0  0  0  0
  138.8616  152.1314  142.9035 C   0  0  0  0  0  0  0  0  0  0  0  0
  137.9123  151.7989  143.7814 C   0  0  0  0  0  0  0  0  0  0  0  0
  138.8307  150.4000  141.6050 C   0  0  0  0  0  0  0  0  0  0  0  0
  137.6881  149.9457  141.7522 C   0  0  0  0  0  0  0  0  0  0  0  0
  137.5093  152.6054  144.9569 C   0  0  0  0  0  0  0  0  0  0  0  0
  136.2294  152.8169  145.1366 C   0  0  0  0  0  0  0  0  0  0  0  0
  136.9209  149.3100  140.7028 C   0  0  0  0  0  0  0  0  0  0  0  0
  136.8325  150.7288  143.6621 C   0  0  0  0  0  0  0  0  0  0  0  0
  136.7813  150.2654  142.6241 C   0  0  0  0  0  0  0  0  0  0  0  0
  135.2783  151.8236  145.1417 C   0  0  0  0  0  0  0  0  0  0  0  0
  135.7009  150.6914  144.4601 C   0  0  0  0  0  0  0  0  0  0  0  0
  1  2  1  0
  2  3  2  0
  1  4  2  0
  4  5  1  0
  3  6  1  0
  6  7  2  0
  5  8  1  0
  3  9  1  0
  5 10  2  0
  9 10  1  0
  7 11  1  0
  9 12  1  0
 11 12  1  0
M  END
$$$$

     RDKit          3D

 12 13  0  0  0  0  0  0  0  0999 V2000
  139.5547  150.5070  140.4456 C   0  0  0  0  0  0  0  0  0  0  0  0
  139.2168  150.0153  139.3732 C   0  0  0  0  0  0  0  0  0  0  0  0
  138.8576  150.3067  141.5853 C   0  0  0  0  0  0  0  0  0  0  0  0
  137.9795  149.2997  139.2377 C   0  0  0  0  0  0  0  0  0  0  0  0
  139.3339  150.9307  142.8848 C   0  0  0  0  0  0  0  0  0  0  0  0
  138.3147  151.4954  143.6107 C   0  0  0  0  0  0  0  0  0  0  0  0
  137.0055  151.1295  143.2688 C   0  0  0  0  0  0  0  0  0  0  0  0
  137.4982  149.8915  141.4959 C   0  0  0  0  0  0  0  0  0  0  0  0
  135.9455  151.6889  144.0869 C   0  0  0  0  0  0  0  0  0  0  0  0
  136.6640  150.3085  142.2134 C   0  0  0  0  0  0  0  0  0  0  0  0
  137.1346  149.2990  140.3920 N   0  0  0  0  0  0  0  0  0  0  0  0
  136.0721  152.1356  145.1699 O   0  0  0  0  0  0  0  0  0  0  0  0
  1  2  2  0
  1  3  1  0
  2  4  1  0
  3  5  1  0
  5  6  2  0
  6  7  1  0
  3  8  2  0
  7  9  1  0
  7 10  2  0
  8 10  1  0
  4 11  2  0
  8 11  1  0
  9 12  1  0
M  END
$$$$

     RDKit          3D

 12 13  0  0  0  0  0  0  0  0999 V2000
  139.5547  150.5070  140.4456 C   0  0  0  0  0  0  0  0  0  0  0  0
  139.2168  150.0153  139.3732 C   0  0  0  0  0  0  0  0  0  0  0  0
  138.8576  150.3067  141.5853 C   0  0  0  0  0  0  0  0  0  0  0  0
  137.9795  149.2997  139.2377 C   0  0  0  0  0  0  0  0  0  0  0  0
  139.3339  150.9307  142.8848 C   0  0  0  0  0  0  0  0  0  0  0  0
  138.3147  151.4954  143.6107 C   0  0  0  0  0  0  0  0  0  0  0  0
  137.0055  151.1295  143.2688 C   0  0  0  0  0  0  0  0  0  0  0  0
  137.4982  149.8915  141.4959 C   0  0  0  0  0  0  0  0  0  0  0  0
  135.9455  151.6889  144.0869 C   0  0  0  0  0  0  0  0  0  0  0  0
  137.0807  149.3428  140.3321 C   0  0  0  0  0  0  0  0  0  0  0  0
  136.6679  150.2040  142.3179 N   0  0  0  0  0  0  0  0  0  0  0  0
  136.2862  152.1947  145.2021 O   0  0  0  0  0  0  0  0  0  0  0  0
  1  2  2  0
  1  3  1  0
  2  4  1  0
  3  5  1  0
  5  6  2  0
  6  7  1  0
  3  8  2  0
  7  9  1  0
  4 10  2  0
  8 10  1  0
  7 11  2  0
  8 11  1  0
  9 12  1  0
M  END
$$$$

     RDKit          3D

 12 12  0  0  0  0  0  0  0  0999 V2000
  138.9699  151.3138  142.5680 C   0  0  0  0  0  0  0  0  0  0  0  0
  138.6028  152.0884  143.2652 C   0  0  0  0  0  0  0  0  0  0  0  0
  137.6691  151.8112  144.0575 C   0  0  0  0  0  0  0  0  0  0  0  0
  136.5758  152.7066  144.5957 C   0  0  0  0  0  0  0  0  0  0  0  0
  135.5865  152.4520  145.5239 C   0  0  0  0  0  0  0  0  0  0  0  0
  139.9119  151.4259  141.3573 C   0  0  0  0  0  0  0  0  0  0  0  0
  135.6786  150.9924  145.8717 C   0  0  0  0  0  0  0  0  0  0  0  0
  137.2821  150.4143  144.6542 C   0  0  0  0  0  0  0  0  0  0  0  0
  138.3181  149.5410  144.1306 O   0  0  0  0  0  0  0  0  0  0  0  0
  136.5035  150.0173  145.5321 C   0  0  0  0  0  0  0  0  0  0  0  0
  139.6341  150.6973  140.2120 C   0  0  0  0  0  0  0  0  0  0  0  0
  138.3696  150.2874  139.9696 C   0  0  0  0  0  0  0  0  0  0  0  0
  1  2  2  3
  2  3  1  0
  3  4  1  0
  4  5  2  0
  1  6  1  0
  5  7  1  0
  3  8  2  0
  8  9  1  0
  7 10  2  0
  8 10  1  0
  6 11  1  0
 11 12  1  0
M  END
$$$$

     RDKit          3D

 12 13  0  0  0  0  0  0  0  0999 V2000
  140.8778  150.5419  139.7337 Cl  0  0  0  0  0  0  0  0  0  0  0  0
  138.9614  150.5329  140.4448 C   0  0  0  0  0  0  0  0  0  0  0  0
  138.2154  149.5089  139.9489 C   0  0  0  0  0  0  0  0  0  0  0  0
  139.1215  151.1800  141.6231 C   0  0  0  0  0  0  0  0  0  0  0  0
  138.0837  150.9004  142.5999 C   0  0  0  0  0  0  0  0  0  0  0  0
  137.1000  149.9215  142.1731 C   0  0  0  0  0  0  0  0  0  0  0  0
  135.9904  149.8133  143.1128 C   0  0  0  0  0  0  0  0  0  0  0  0
  136.2020  150.8803  144.1689 C   0  0  0  0  0  0  0  0  0  0  0  0
  137.0127  149.4088  140.8396 C   0  0  0  0  0  0  0  0  0  0  0  0
  138.1150  151.3765  143.9408 C   0  0  0  0  0  0  0  0  0  0  0  0
  134.8496  151.0078  145.0599 C   0  0  0  0  0  0  0  0  0  0  0  0
  137.2016  151.2231  144.6953 N   0  0  0  0  0  0  0  0  0  0  0  0
  1  2  1  0
  2  3  2  0
  2  4  1  0
  4  5  2  0
  5  6  1  0
  6  7  1  0
  7  8  1  0
  3  9  1  0
  6  9  2  0
  5 10  1  0
  8 11  1  0
  8 12  2  0
 10 12  1  0
M  END
$$$$

     RDKit          3D

 12 13  0  0  0  0  0  0  0  0999 V2000
  140.3036  150.2147  139.4796 Cl  0  0  0  0  0  0  0  0  0  0  0  0
  138.6769  150.1876  140.5325 C   0  0  0  0  0  0  0  0  0  0  0  0
  137.6372  149.3844  140.0947 C   0  0  0  0  0  0  0  0  0  0  0  0
  139.2395  150.7156  141.5763 C   0  0  0  0  0  0  0  0  0  0  0  0
  138.3571  151.0517  142.3779 C   0  0  0  0  0  0  0  0  0  0  0  0
  136.5108  149.6332  140.9987 C   0  0  0  0  0  0  0  0  0  0  0  0
  138.6460  151.8147  143.7096 C   0  0  0  0  0  0  0  0  0  0  0  0
  137.6153  151.9265  144.6546 C   0  0  0  0  0  0  0  0  0  0  0  0
  136.4418  151.2576  144.3060 C   0  0  0  0  0  0  0  0  0  0  0  0
  135.4225  151.4094  145.3947 C   0  0  0  0  0  0  0  0  0  0  0  0
  136.9030  150.5195  142.2060 C   0  0  0  0  0  0  0  0  0  0  0  0
  136.1209  150.7429  143.1118 N   0  0  0  0  0  0  0  0  0  0  0  0
  1  2  1  0
  2  3  1  0
  2  4  2  0
  4  5  1  0
  3  6  2  0
  5  7  1  0
  7  8  2  0
  8  9  1  0
  9 10  1  0
  5 11  2  0
  6 11  1  0
  9 12  2  0
 11 12  1  0
M  END
$$$$

     RDKit          3D

 12 13  0  0  0  0  0  0  0  0999 V2000
  138.9699  151.3138  142.5680 C   0  0  0  0  0  0  0  0  0  0  0  0
  138.6028  152.0884  143.2652 C   0  0  0  0  0  0  0  0  0  0  0  0
  137.4868  151.7382  144.1979 C   0  0  0  0  0  0  0  0  0  0  0  0
  139.9964  151.3955  141.4280 C   0  0  0  0  0  0  0  0  0  0  0  0
  139.7128  150.7435  140.2231 C   0  0  0  0  0  0  0  0  0  0  0  0
  136.8228  152.5252  145.1074 C   0  0  0  0  0  0  0  0  0  0  0  0
  135.5703  152.2287  145.6318 C   0  0  0  0  0  0  0  0  0  0  0  0
  138.6521  149.7726  140.3978 C   0  0  0  0  0  0  0  0  0  0  0  0
  137.8253  149.9062  141.3261 C   0  0  0  0  0  0  0  0  0  0  0  0
  138.0322  150.3776  142.3797 C   0  0  0  0  0  0  0  0  0  0  0  0
  136.8937  150.5830  144.2481 C   0  0  0  0  0  0  0  0  0  0  0  0
  135.4261  150.8804  145.2652 C   0  0  0  0  0  0  0  0  0  0  0  0
  1  2  1  0
  2  3  2  3
  1  4  1  0
  4  5  2  0
  3  6  1  0
  6  7  1  0
  5  8  1  0
  8  9  2  0
  1 10  2  0
  9 10  1  0
  3 11  1  0
  7 12  1  0
 11 12  1  0
M  END
$$$$

     RDKit          3D

 12 13  0  0  0  0  0  0  0  0999 V2000
  140.8778  150.5419  139.7337 Cl  0  0  0  0  0  0  0  0  0  0  0  0
  138.9614  150.5329  140.4448 C   0  0  0  0  0  0  0  0  0  0  0  0
  138.2154  149.5089  139.9489 C   0  0  0  0  0  0  0  0  0  0  0  0
  136.8617  149.5090  140.3210 C   0  0  0  0  0  0  0  0  0  0  0  0
  139.0012  151.0524  141.6434 C   0  0  0  0  0  0  0  0  0  0  0  0
  137.9608  150.9945  142.3904 C   0  0  0  0  0  0  0  0  0  0  0  0
  137.9126  151.5639  143.7849 C   0  0  0  0  0  0  0  0  0  0  0  0
  136.4856  150.0759  141.6547 C   0  0  0  0  0  0  0  0  0  0  0  0
  136.9274  150.7231  142.5126 C   0  0  0  0  0  0  0  0  0  0  0  0
  136.8589  151.5624  144.5024 C   0  0  0  0  0  0  0  0  0  0  0  0
  136.6420  152.0299  145.8732 C   0  0  0  0  0  0  0  0  0  0  0  0
  136.0704  151.0495  143.5997 N   0  0  0  0  0  0  0  0  0  0  0  0
  1  2  1  0
  2  3  2  0
  3  4  1  0
  2  5  1  0
  5  6  2  0
  6  7  1  0
  4  8  2  0
  6  9  1  0
  8  9  1  0
  7 10  2  0
 10 11  1  0
  9 12  2  0
 10 12  1  0
M  END
$$$$

     RDKit          3D

 12 12  0  0  0  0  0  0  0  0999 V2000
  138.7247  151.5764  143.3183 C   0  0  0  0  0  0  0  0  0  0  0  0
  137.9184  152.3259  143.7535 C   0  0  0  0  0  0  0  0  0  0  0  0
  136.7531  151.7836  144.4567 C   0  0  0  0  0  0  0  0  0  0  0  0
  136.8362  150.4414  144.7132 C   0  0  0  0  0  0  0  0  0  0  0  0
  138.7265  150.3748  143.0129 C   0  0  0  0  0  0  0  0  0  0  0  0
  139.6213  149.6149  142.1899 C   0  0  0  0  0  0  0  0  0  0  0  0
  139.7409  150.2983  140.9082 C   0  0  0  0  0  0  0  0  0  0  0  0
  140.1745  149.5822  139.7375 C   0  0  0  0  0  0  0  0  0  0  0  0
  135.5022  152.2545  145.0499 C   0  0  0  0  0  0  0  0  0  0  0  0
  139.8164  150.2188  138.4133 C   0  0  0  0  0  0  0  0  0  0  0  0
  137.7706  149.6440  143.9107 C   0  0  0  0  0  0  0  0  0  0  0  0
  135.0228  153.3073  145.1720 C   0  0  0  0  0  0  0  0  0  0  0  0
  1  2  1  0
  2  3  2  0
  3  4  1  0
  1  5  2  0
  5  6  1  0
  6  7  1  0
  7  8  1  0
  3  9  1  0
  8 10  1  0
  4 11  2  0
  5 11  1  0
  9 12  2  0
M  END
$$$$

     RDKit          3D

 12 12  0  0  0  0  0  0  0  0999 V2000
  138.7247  151.5764  143.3183 C   0  0  0  0  0  0  0  0  0  0  0  0
  137.9184  152.3259  143.7535 C   0  0  0  0  0  0  0  0  0  0  0  0
  136.7531  151.7836  144.4567 C   0  0  0  0  0  0  0  0  0  0  0  0
  136.8362  150.4414  144.7132 C   0  0  0  0  0  0  0  0  0  0  0  0
  138.7265  150.3748  143.0129 C   0  0  0  0  0  0  0  0  0  0  0  0
  139.6213  149.6149  142.1899 C   0  0  0  0  0  0  0  0  0  0  0  0
  139.7409  150.2983  140.9082 C   0  0  0  0  0  0  0  0  0  0  0  0
  140.1745  149.5822  139.7375 C   0  0  0  0  0  0  0  0  0  0  0  0
  135.5022  152.2545  145.0499 C   0  0  0  0  0  0  0  0  0  0  0  0
  137.7231  149.6335  143.9402 N   0  0  0  0  0  0  0  0  0  0  0  0
  134.8524  152.0301  145.9429 C   0  0  0  0  0  0  0  0  0  0  0  0
  139.8098  150.2214  138.4227 C   0  0  0  0  0  0  0  0  0  0  0  0
  1  2  1  0
  2  3  2  0
  3  4  1  0
  1  5  2  0
  5  6  1  0
  6  7  1  0
  7  8  1  0
  3  9  1  0
  4 10  2  0
  5 10  1  0
  9 11  1  0
  8 12  1  0
M  END
$$$$

     RDKit          3D

 12 13  0  0  0  0  0  0  0  0999 V2000
  140.8778  150.5419  139.7337 Cl  0  0  0  0  0  0  0  0  0  0  0  0
  138.9614  150.5329  140.4448 C   0  0  0  0  0  0  0  0  0  0  0  0
  138.2154  149.5089  139.9489 C   0  0  0  0  0  0  0  0  0  0  0  0
  139.1215  151.1800  141.6231 C   0  0  0  0  0  0  0  0  0  0  0  0
  138.0837  150.9004  142.5999 C   0  0  0  0  0  0  0  0  0  0  0  0
  137.1000  149.9215  142.1731 C   0  0  0  0  0  0  0  0  0  0  0  0
  135.9904  149.8133  143.1128 C   0  0  0  0  0  0  0  0  0  0  0  0
  136.2020  150.8803  144.1689 C   0  0  0  0  0  0  0  0  0  0  0  0
  138.1207  151.4578  143.7958 C   0  0  0  0  0  0  0  0  0  0  0  0
  137.1405  151.3024  144.4954 C   0  0  0  0  0  0  0  0  0  0  0  0
  138.1486  149.0079  138.7170 C   0  0  0  0  0  0  0  0  0  0  0  0
  136.9360  149.2520  140.9203 C   0  0  0  0  0  0  0  0  0  0  0  0
  1  2  1  0
  2  3  2  0
  2  4  1  0
  4  5  2  0
  5  6  1  0
  6  7  1  0
  7  8  1  0
  5  9  1  0
  8 10  1  0
  9 10  2  0
  3 11  1  0
  3 12  1  0
  6 12  2  0
M  END
$$$$

     RDKit          3D

 12 12  0  0  0  0  0  0  0  0999 V2000
  140.8778  150.5419  139.7337 Cl  0  0  0  0  0  0  0  0  0  0  0  0
  138.9614  150.5329  140.4448 C   0  0  0  0  0  0  0  0  0  0  0  0
  138.2154  149.5089  139.9489 C   0  0  0  0  0  0  0  0  0  0  0  0
  136.8617  149.5090  140.3210 C   0  0  0  0  0  0  0  0  0  0  0  0
  138.8168  151.3632  141.4916 C   0  0  0  0  0  0  0  0  0  0  0  0
  137.5675  151.2666  142.1555 C   0  0  0  0  0  0  0  0  0  0  0  0
  136.5964  150.4653  141.7399 C   0  0  0  0  0  0  0  0  0  0  0  0
  137.1881  152.0872  143.3497 C   0  0  0  0  0  0  0  0  0  0  0  0
  138.2342  152.7349  144.0794 C   0  0  0  0  0  0  0  0  0  0  0  0
  136.3708  151.7964  144.4126 C   0  0  0  0  0  0  0  0  0  0  0  0
  136.3873  150.6759  145.0688 C   0  0  0  0  0  0  0  0  0  0  0  0
  135.5381  152.8266  144.7732 C   0  0  0  0  0  0  0  0  0  0  0  0
  1  2  1  0
  2  3  2  0
  3  4  1  0
  2  5  1  0
  5  6  2  0
  4  7  2  0
  6  7  1  0
  6  8  1  0
  8  9  1  0
  8 10  1  0
 10 11  2  0
 10 12  1  0
M  END
$$$$

     RDKit          3D

 12 12  0  0  0  0  0  0  0  0999 V2000
  138.7247  151.5764  143.3183 C   0  0  0  0  0  0  0  0  0  0  0  0
  137.9184  152.3259  143.7535 C   0  0  0  0  0  0  0  0  0  0  0  0
  136.7531  151.7836  144.4567 C   0  0  0  0  0  0  0  0  0  0  0  0
  136.8362  150.4414  144.7132 C   0  0  0  0  0  0  0  0  0  0  0  0
  138.7265  150.3748  143.0129 C   0  0  0  0  0  0  0  0  0  0  0  0
  139.6213  149.6149  142.1899 C   0  0  0  0  0  0  0  0  0  0  0  0
  135.8497  152.6994  145.2001 C   0  0  0  0  0  0  0  0  0  0  0  0
  137.6363  149.7174  143.8827 C   0  0  0  0  0  0  0  0  0  0  0  0
  139.4930  149.9926  140.7728 C   0  0  0  0  0  0  0  0  0  0  0  0
  140.3426  150.2991  140.1368 C   0  0  0  0  0  0  0  0  0  0  0  0
  141.6810  150.4084  140.4212 C   0  0  0  0  0  0  0  0  0  0  0  0
  140.0951  150.6933  138.7228 C   0  0  0  0  0  0  0  0  0  0  0  0
  1  2  1  0
  2  3  2  0
  3  4  1  0
  1  5  2  0
  5  6  1  0
  3  7  1  0
  4  8  2  0
  5  8  1  0
  6  9  1  0
  9 10  1  0
 10 11  1  0
 10 12  2  0
M  END
$$$$

     RDKit          3D

 12 13  0  0  0  0  0  0  0  0999 V2000
  138.9699  151.3138  142.5680 C   0  0  0  0  0  0  0  0  0  0  0  0
  138.6028  152.0884  143.2652 C   0  0  0  0  0  0  0  0  0  0  0  0
  137.4868  151.7382  144.1979 C   0  0  0  0  0  0  0  0  0  0  0  0
  139.9964  151.3955  141.4280 C   0  0  0  0  0  0  0  0  0  0  0  0
  139.7128  150.7435  140.2231 C   0  0  0  0  0  0  0  0  0  0  0  0
  137.0980  150.3607  143.9160 C   0  0  0  0  0  0  0  0  0  0  0  0
  138.4640  149.8986  142.0939 C   0  0  0  0  0  0  0  0  0  0  0  0
  138.9093  149.6851  140.2985 C   0  0  0  0  0  0  0  0  0  0  0  0
  136.7346  152.3723  145.2066 C   0  0  0  0  0  0  0  0  0  0  0  0
  137.5994  149.3671  142.9458 N   0  0  0  0  0  0  0  0  0  0  0  0
  137.0912  153.7119  145.4716 C   0  0  0  0  0  0  0  0  0  0  0  0
  135.6359  152.0451  145.3988 O   0  0  0  0  0  0  0  0  0  0  0  0
  1  2  1  0
  2  3  2  0
  1  4  1  0
  4  5  2  0
  3  6  1  0
  1  7  2  0
  5  8  1  0
  7  8  1  0
  3  9  1  0
  6 10  2  0
  7 10  1  0
  9 11  1  0
  9 12  2  0
M  END
$$$$

     RDKit          3D

 12 13  0  0  0  0  0  0  0  0999 V2000
  140.8778  150.5419  139.7337 Cl  0  0  0  0  0  0  0  0  0  0  0  0
  138.9614  150.5329  140.4448 C   0  0  0  0  0  0  0  0  0  0  0  0
  138.2154  149.5089  139.9489 C   0  0  0  0  0  0  0  0  0  0  0  0
  139.1215  151.1800  141.6231 C   0  0  0  0  0  0  0  0  0  0  0  0
  138.0837  150.9004  142.5999 C   0  0  0  0  0  0  0  0  0  0  0  0
  137.1000  149.9215  142.1731 C   0  0  0  0  0  0  0  0  0  0  0  0
  137.9738  151.4115  144.0977 C   0  0  0  0  0  0  0  0  0  0  0  0
  135.9463  149.8332  143.0462 C   0  0  0  0  0  0  0  0  0  0  0  0
  137.0103  149.4477  140.8009 C   0  0  0  0  0  0  0  0  0  0  0  0
  136.9071  151.1599  144.7394 C   0  0  0  0  0  0  0  0  0  0  0  0
  136.8971  151.7958  146.1138 C   0  0  0  0  0  0  0  0  0  0  0  0
  135.9785  150.4641  144.3702 C   0  0  0  0  0  0  0  0  0  0  0  0
  1  2  1  0
  2  3  2  0
  2  4  1  0
  4  5  2  0
  5  6  1  0
  5  7  1  0
  6  8  1  0
  3  9  1  0
  6  9  2  0
  7 10  2  0
 10 11  1  0
  8 12  2  0
 10 12  1  0
M  END
$$$$

     RDKit          3D

 12 13  0  0  0  0  0  0  0  0999 V2000
  139.2623  151.0928  142.4045 C   0  0  0  0  0  0  0  0  0  0  0  0
  138.8616  152.1314  142.9035 C   0  0  0  0  0  0  0  0  0  0  0  0
  137.7829  151.8931  143.8930 C   0  0  0  0  0  0  0  0  0  0  0  0
  140.0683  150.9662  141.1540 C   0  0  0  0  0  0  0  0  0  0  0  0
  139.7970  150.5484  140.1018 C   0  0  0  0  0  0  0  0  0  0  0  0
  137.3714  150.5055  143.9905 C   0  0  0  0  0  0  0  0  0  0  0  0
  140.5294  150.5935  138.8561 C   0  0  0  0  0  0  0  0  0  0  0  0
  136.3579  150.2954  144.9989 C   0  0  0  0  0  0  0  0  0  0  0  0
  135.8365  151.5900  145.4651 C   0  0  0  0  0  0  0  0  0  0  0  0
  136.8561  152.4612  144.7441 C   0  0  0  0  0  0  0  0  0  0  0  0
  138.2101  149.7266  143.2002 C   0  0  0  0  0  0  0  0  0  0  0  0
  136.4630  153.7827  145.0221 C   0  0  0  0  0  0  0  0  0  0  0  0
  1  2  1  0
  2  3  2  0
  1  4  1  0
  4  5  2  3
  3  6  1  0
  5  7  1  0
  6  8  1  0
  8  9  2  0
  3 10  1  0
  9 10  1  0
  1 11  1  0
  6 11  2  0
 10 12  2  0
M  END
$$$$

     RDKit          3D

 12 13  0  0  0  0  0  0  0  0999 V2000
  139.5547  150.5070  140.4456 C   0  0  0  0  0  0  0  0  0  0  0  0
  139.2168  150.0153  139.3732 C   0  0  0  0  0  0  0  0  0  0  0  0
  138.8576  150.3067  141.5853 C   0  0  0  0  0  0  0  0  0  0  0  0
  137.9795  149.2997  139.2377 C   0  0  0  0  0  0  0  0  0  0  0  0
  137.2014  149.2065  140.2777 C   0  0  0  0  0  0  0  0  0  0  0  0
  139.3287  150.8974  142.9145 C   0  0  0  0  0  0  0  0  0  0  0  0
  138.3159  151.4430  143.6701 C   0  0  0  0  0  0  0  0  0  0  0  0
  137.1816  151.2533  143.6210 C   0  0  0  0  0  0  0  0  0  0  0  0
  137.4938  149.8956  141.5174 C   0  0  0  0  0  0  0  0  0  0  0  0
  136.5100  150.2140  142.6011 C   0  0  0  0  0  0  0  0  0  0  0  0
  136.1480  151.7100  144.5980 C   0  0  0  0  0  0  0  0  0  0  0  0
  136.1295  152.9701  145.0119 C   0  0  0  0  0  0  0  0  0  0  0  0
  1  2  2  0
  1  3  1  0
  2  4  1  0
  4  5  2  0
  3  6  1  0
  6  7  2  0
  7  8  1  0
  3  9  2  0
  5  9  1  0
  8 10  2  0
  9 10  1  0
  8 11  1  0
 11 12  2  0
M  END
$$$$

     RDKit          3D

 12 12  0  0  0  0  0  0  0  0999 V2000
  138.9699  151.3138  142.5680 C   0  0  0  0  0  0  0  0  0  0  0  0
  138.6028  152.0884  143.2652 C   0  0  0  0  0  0  0  0  0  0  0  0
  137.6691  151.8112  144.0575 C   0  0  0  0  0  0  0  0  0  0  0  0
  136.5758  152.7066  144.5957 C   0  0  0  0  0  0  0  0  0  0  0  0
  135.5865  152.4520  145.5239 C   0  0  0  0  0  0  0  0  0  0  0  0
  139.9119  151.4259  141.3573 C   0  0  0  0  0  0  0  0  0  0  0  0
  135.6786  150.9924  145.8717 C   0  0  0  0  0  0  0  0  0  0  0  0
  137.2576  150.5094  144.6898 C   0  0  0  0  0  0  0  0  0  0  0  0
  139.6716  150.6607  140.2603 C   0  0  0  0  0  0  0  0  0  0  0  0
  134.6632  150.7341  146.9484 C   0  0  0  0  0  0  0  0  0  0  0  0
  136.4660  150.0471  145.4681 C   0  0  0  0  0  0  0  0  0  0  0  0
  140.6585  150.1537  139.4526 C   0  0  0  0  0  0  0  0  0  0  0  0
  1  2  2  3
  2  3  1  0
  3  4  1  0
  4  5  2  0
  1  6  1  0
  5  7  1  0
  3  8  2  0
  6  9  1  0
  7 10  1  0
  7 11  2  0
  8 11  1  0
  9 12  2  0
M  END
$$$$

     RDKit          3D

 12 13  0  0  0  0  0  0  0  0999 V2000
  140.8778  150.5419  139.7337 Cl  0  0  0  0  0  0  0  0  0  0  0  0
  138.9614  150.5329  140.4448 C   0  0  0  0  0  0  0  0  0  0  0  0
  138.2154  149.5089  139.9489 C   0  0  0  0  0  0  0  0  0  0  0  0
  139.1215  151.1800  141.6231 C   0  0  0  0  0  0  0  0  0  0  0  0
  138.0837  150.9004  142.5999 C   0  0  0  0  0  0  0  0  0  0  0  0
  137.1000  149.9215  142.1731 C   0  0  0  0  0  0  0  0  0  0  0  0
  135.9904  149.8133  143.1128 C   0  0  0  0  0  0  0  0  0  0  0  0
  136.2020  150.8803  144.1689 C   0  0  0  0  0  0  0  0  0  0  0  0
  137.0127  149.4088  140.8396 C   0  0  0  0  0  0  0  0  0  0  0  0
  138.1150  151.3765  143.9408 C   0  0  0  0  0  0  0  0  0  0  0  0
  134.8496  151.0078  145.0599 C   0  0  0  0  0  0  0  0  0  0  0  0
  137.1789  151.4313  144.7366 C   0  0  0  0  0  0  0  0  0  0  0  0
  1  2  1  0
  2  3  2  0
  2  4  1  0
  4  5  2  0
  5  6  1  0
  6  7  1  0
  7  8  1  0
  3  9  1  0
  6  9  2  0
  5 10  1  0
  8 11  1  0
  8 12  1  0
 10 12  1  0
M  END
$$$$

     RDKit          3D

 12 13  0  0  0  0  0  0  0  0999 V2000
  140.8778  150.5419  139.7337 Cl  0  0  0  0  0  0  0  0  0  0  0  0
  138.9614  150.5329  140.4448 C   0  0  0  0  0  0  0  0  0  0  0  0
  138.2154  149.5089  139.9489 C   0  0  0  0  0  0  0  0  0  0  0  0
  136.8617  149.5090  140.3210 C   0  0  0  0  0  0  0  0  0  0  0  0
  139.0012  151.0524  141.6434 C   0  0  0  0  0  0  0  0  0  0  0  0
  137.9608  150.9945  142.3904 C   0  0  0  0  0  0  0  0  0  0  0  0
  137.9126  151.5639  143.7849 C   0  0  0  0  0  0  0  0  0  0  0  0
  136.4856  150.0759  141.6547 C   0  0  0  0  0  0  0  0  0  0  0  0
  136.9274  150.7231  142.5126 C   0  0  0  0  0  0  0  0  0  0  0  0
  136.8589  151.5624  144.5024 C   0  0  0  0  0  0  0  0  0  0  0  0
  136.6420  152.0299  145.8732 C   0  0  0  0  0  0  0  0  0  0  0  0
  135.9243  150.9546  143.6162 C   0  0  0  0  0  0  0  0  0  0  0  0
  1  2  1  0
  2  3  2  0
  3  4  1  0
  2  5  1  0
  5  6  2  0
  6  7  1  0
  4  8  2  0
  6  9  1  0
  8  9  1  0
  7 10  2  0
 10 11  1  0
  9 12  2  0
 10 12  1  0
M  END
$$$$

     RDKit          3D

 12 13  0  0  0  0  0  0  0  0999 V2000
  138.9699  151.3138  142.5680 C   0  0  0  0  0  0  0  0  0  0  0  0
  138.6028  152.0884  143.2652 C   0  0  0  0  0  0  0  0  0  0  0  0
  139.7631  151.4673  141.3548 C   0  0  0  0  0  0  0  0  0  0  0  0
  137.7630  151.7029  144.3616 C   0  0  0  0  0  0  0  0  0  0  0  0
  137.3920  150.3001  144.2733 C   0  0  0  0  0  0  0  0  0  0  0  0
  139.5876  150.5258  140.3061 C   0  0  0  0  0  0  0  0  0  0  0  0
  138.2954  149.8905  142.6518 C   0  0  0  0  0  0  0  0  0  0  0  0
  138.8817  149.4406  140.3346 C   0  0  0  0  0  0  0  0  0  0  0  0
  140.4630  150.9833  139.1236 C   0  0  0  0  0  0  0  0  0  0  0  0
  136.4806  149.9382  145.4453 C   0  0  0  0  0  0  0  0  0  0  0  0
  137.9537  149.3841  141.3386 C   0  0  0  0  0  0  0  0  0  0  0  0
  137.8103  149.4471  143.4252 N   0  0  0  0  0  0  0  0  0  0  0  0
  1  2  1  0
  1  3  1  0
  2  4  2  0
  4  5  1  0
  3  6  2  0
  1  7  2  0
  6  8  1  0
  6  9  1  0
  5 10  1  0
  7 11  1  0
  8 11  2  0
  5 12  2  0
  7 12  1  0
M  END
$$$$

     RDKit          3D

 12 13  0  0  0  0  0  0  0  0999 V2000
  139.5547  150.5070  140.4456 C   0  0  0  0  0  0  0  0  0  0  0  0
  139.2168  150.0153  139.3732 C   0  0  0  0  0  0  0  0  0  0  0  0
  138.8576  150.3067  141.5853 C   0  0  0  0  0  0  0  0  0  0  0  0
  137.9795  149.2997  139.2377 C   0  0  0  0  0  0  0  0  0  0  0  0
  139.3339  150.9307  142.8848 C   0  0  0  0  0  0  0  0  0  0  0  0
  138.3147  151.4954  143.6107 C   0  0  0  0  0  0  0  0  0  0  0  0
  137.0055  151.1295  143.2688 C   0  0  0  0  0  0  0  0  0  0  0  0
  137.4982  149.8915  141.4959 C   0  0  0  0  0  0  0  0  0  0  0  0
  135.9455  151.6889  144.0869 C   0  0  0  0  0  0  0  0  0  0  0  0
  136.6640  150.3085  142.2134 C   0  0  0  0  0  0  0  0  0  0  0  0
  137.1346  149.2990  140.3920 N   0  0  0  0  0  0  0  0  0  0  0  0
  136.0721  152.1356  145.1699 O   0  0  0  0  0  0  0  0  0  0  0  0
  1  2  2  0
  1  3  1  0
  2  4  1  0
  3  5  1  0
  5  6  2  0
  6  7  1  0
  3  8  2  0
  7  9  1  0
  7 10  2  0
  8 10  1  0
  4 11  2  0
  8 11  1  0
  9 12  2  0
M  END
$$$$

     RDKit          3D

 12 13  0  0  0  0  0  0  0  0999 V2000
  140.8778  150.5419  139.7337 Cl  0  0  0  0  0  0  0  0  0  0  0  0
  138.9614  150.5329  140.4448 C   0  0  0  0  0  0  0  0  0  0  0  0
  138.2154  149.5089  139.9489 C   0  0  0  0  0  0  0  0  0  0  0  0
  139.1215  151.1800  141.6231 C   0  0  0  0  0  0  0  0  0  0  0  0
  138.0837  150.9004  142.5999 C   0  0  0  0  0  0  0  0  0  0  0  0
  137.1000  149.9215  142.1731 C   0  0  0  0  0  0  0  0  0  0  0  0
  135.9904  149.8133  143.1128 C   0  0  0  0  0  0  0  0  0  0  0  0
  136.2020  150.8803  144.1689 C   0  0  0  0  0  0  0  0  0  0  0  0
  136.9981  149.3556  140.8690 C   0  0  0  0  0  0  0  0  0  0  0  0
  138.1133  151.3851  143.9344 C   0  0  0  0  0  0  0  0  0  0  0  0
  134.8513  151.0098  145.0628 C   0  0  0  0  0  0  0  0  0  0  0  0
  137.1763  151.4573  144.7215 C   0  0  0  0  0  0  0  0  0  0  0  0
  1  2  1  0
  2  3  2  0
  2  4  1  0
  4  5  2  0
  5  6  1  0
  6  7  1  0
  7  8  1  0
  3  9  1  0
  6  9  2  0
  5 10  1  0
  8 11  1  0
  8 12  2  0
 10 12  1  0
M  END
$$$$

     RDKit          3D

 12 12  0  0  0  0  0  0  0  0999 V2000
  138.7092  151.1474  142.6270 C   0  0  0  0  0  0  0  0  0  0  0  0
  138.5252  151.9373  143.5111 C   0  0  0  0  0  0  0  0  0  0  0  0
  137.3814  151.6573  144.3961 C   0  0  0  0  0  0  0  0  0  0  0  0
  139.7031  151.1128  141.6105 C   0  0  0  0  0  0  0  0  0  0  0  0
  136.7109  150.4281  144.0240 C   0  0  0  0  0  0  0  0  0  0  0  0
  137.9078  150.0157  142.3135 C   0  0  0  0  0  0  0  0  0  0  0  0
  136.8888  149.6171  143.0677 C   0  0  0  0  0  0  0  0  0  0  0  0
  137.0551  152.5116  145.4729 C   0  0  0  0  0  0  0  0  0  0  0  0
  139.8733  150.6462  140.3139 C   0  0  0  0  0  0  0  0  0  0  0  0
  135.7107  152.5379  145.9320 C   0  0  0  0  0  0  0  0  0  0  0  0
  140.8892  150.9239  139.4193 C   0  0  0  0  0  0  0  0  0  0  0  0
  134.9334  151.6223  145.9861 C   0  0  0  0  0  0  0  0  0  0  0  0
  1  2  1  0
  2  3  2  0
  1  4  1  0
  3  5  1  0
  1  6  2  0
  5  7  2  0
  6  7  1  0
  3  8  1  0
  4  9  2  3
  8 10  1  0
  9 11  1  0
 10 12  1  0
M  END
$$$$

     RDKit          3D

 12 13  0  0  0  0  0  0  0  0999 V2000
  140.8778  150.5419  139.7337 Cl  0  0  0  0  0  0  0  0  0  0  0  0
  138.9614  150.5329  140.4448 C   0  0  0  0  0  0  0  0  0  0  0  0
  138.2154  149.5089  139.9489 C   0  0  0  0  0  0  0  0  0  0  0  0
  136.8617  149.5090  140.3210 C   0  0  0  0  0  0  0  0  0  0  0  0
  139.0012  151.0524  141.6434 C   0  0  0  0  0  0  0  0  0  0  0  0
  137.9608  150.9945  142.3904 C   0  0  0  0  0  0  0  0  0  0  0  0
  137.9126  151.5639  143.7849 C   0  0  0  0  0  0  0  0  0  0  0  0
  136.4856  150.0759  141.6547 C   0  0  0  0  0  0  0  0  0  0  0  0
  136.9274  150.7231  142.5126 C   0  0  0  0  0  0  0  0  0  0  0  0
  136.8589  151.5624  144.5024 C   0  0  0  0  0  0  0  0  0  0  0  0
  136.6420  152.0299  145.8732 C   0  0  0  0  0  0  0  0  0  0  0  0
  136.0704  151.0495  143.5997 N   0  0  0  0  0  0  0  0  0  0  0  0
  1  2  1  0
  2  3  2  0
  3  4  1  0
  2  5  1  0
  5  6  2  0
  6  7  1  0
  4  8  2  0
  6  9  1  0
  8  9  1  0
  7 10  2  0
 10 11  1  0
  9 12  1  0
 10 12  1  0
M  END
$$$$

     RDKit          3D

 12 13  0  0  0  0  0  0  0  0999 V2000
  139.5547  150.5070  140.4456 C   0  0  0  0  0  0  0  0  0  0  0  0
  139.2168  150.0153  139.3732 C   0  0  0  0  0  0  0  0  0  0  0  0
  138.8576  150.3067  141.5853 C   0  0  0  0  0  0  0  0  0  0  0  0
  137.9795  149.2997  139.2377 C   0  0  0  0  0  0  0  0  0  0  0  0
  139.3339  150.9307  142.8848 C   0  0  0  0  0  0  0  0  0  0  0  0
  138.3147  151.4954  143.6107 C   0  0  0  0  0  0  0  0  0  0  0  0
  137.0055  151.1295  143.2688 C   0  0  0  0  0  0  0  0  0  0  0  0
  137.4982  149.8915  141.4959 C   0  0  0  0  0  0  0  0  0  0  0  0
  135.9455  151.6889  144.0869 C   0  0  0  0  0  0  0  0  0  0  0  0
  137.0807  149.3428  140.3321 C   0  0  0  0  0  0  0  0  0  0  0  0
  136.6679  150.2040  142.3179 N   0  0  0  0  0  0  0  0  0  0  0  0
  136.2862  152.1947  145.2021 O   0  0  0  0  0  0  0  0  0  0  0  0
  1  2  2  0
  1  3  1  0
  2  4  1  0
  3  5  1  0
  5  6  2  0
  6  7  1  0
  3  8  2  0
  7  9  1  0
  4 10  2  0
  8 10  1  0
  7 11  2  0
  8 11  1  0
  9 12  2  0
M  END
$$$$

     RDKit          3D

 12 13  0  0  0  0  0  0  0  0999 V2000
  138.9699  151.3138  142.5680 C   0  0  0  0  0  0  0  0  0  0  0  0
  138.6028  152.0884  143.2652 C   0  0  0  0  0  0  0  0  0  0  0  0
  137.6377  151.6909  144.0815 C   0  0  0  0  0  0  0  0  0  0  0  0
  137.2743  150.3458  144.1256 C   0  0  0  0  0  0  0  0  0  0  0  0
  138.6285  149.8576  142.4561 C   0  0  0  0  0  0  0  0  0  0  0  0
  136.6700  152.4504  145.1379 C   0  0  0  0  0  0  0  0  0  0  0  0
  135.6331  151.8358  145.6654 C   0  0  0  0  0  0  0  0  0  0  0  0
  139.2204  148.9918  141.5742 O   0  0  0  0  0  0  0  0  0  0  0  0
  136.9359  153.7515  145.2413 C   0  0  0  0  0  0  0  0  0  0  0  0
  136.3684  149.9622  145.2314 C   0  0  0  0  0  0  0  0  0  0  0  0
  137.7836  149.3286  143.3867 C   0  0  0  0  0  0  0  0  0  0  0  0
  135.4789  150.5492  145.8879 C   0  0  0  0  0  0  0  0  0  0  0  0
  1  2  1  0
  2  3  2  0
  3  4  1  0
  1  5  2  0
  3  6  1  0
  6  7  1  0
  5  8  1  0
  6  9  2  0
  4 10  1  0
  4 11  2  0
  5 11  1  0
  7 12  2  0
 10 12  2  0
M  END
$$$$

     RDKit          3D

 12 13  0  0  0  0  0  0  0  0999 V2000
  138.7092  151.1474  142.6270 C   0  0  0  0  0  0  0  0  0  0  0  0
  138.5252  151.9373  143.5111 C   0  0  0  0  0  0  0  0  0  0  0  0
  137.3814  151.6573  144.3961 C   0  0  0  0  0  0  0  0  0  0  0  0
  139.7031  151.1128  141.6105 C   0  0  0  0  0  0  0  0  0  0  0  0
  136.7531  152.5760  145.3055 C   0  0  0  0  0  0  0  0  0  0  0  0
  139.6217  150.4559  140.3336 C   0  0  0  0  0  0  0  0  0  0  0  0
  138.4482  149.6024  140.4479 C   0  0  0  0  0  0  0  0  0  0  0  0
  137.5872  149.7615  141.5813 C   0  0  0  0  0  0  0  0  0  0  0  0
  140.6805  150.4109  139.3309 C   0  0  0  0  0  0  0  0  0  0  0  0
  135.4061  152.4666  145.6358 C   0  0  0  0  0  0  0  0  0  0  0  0
  137.7555  150.4138  142.5516 C   0  0  0  0  0  0  0  0  0  0  0  0
  136.8292  150.3492  143.9080 C   0  0  0  0  0  0  0  0  0  0  0  0
  1  2  1  0
  2  3  2  0
  1  4  1  0
  3  5  1  0
  4  6  2  0
  6  7  1  0
  7  8  2  0
  6  9  1  0
  5 10  2  0
  1 11  2  0
  8 11  1  0
  3 12  1  0
 11 12  1  0
M  END
$$$$

     RDKit          3D

 12 13  0  0  0  0  0  0  0  0999 V2000
  139.5547  150.5070  140.4456 C   0  0  0  0  0  0  0  0  0  0  0  0
  139.2168  150.0153  139.3732 C   0  0  0  0  0  0  0  0  0  0  0  0
  138.8576  150.3067  141.5853 C   0  0  0  0  0  0  0  0  0  0  0  0
  137.9795  149.2997  139.2377 C   0  0  0  0  0  0  0  0  0  0  0  0
  137.2014  149.2065  140.2777 C   0  0  0  0  0  0  0  0  0  0  0  0
  139.3287  150.8974  142.9145 C   0  0  0  0  0  0  0  0  0  0  0  0
  138.3159  151.4430  143.6701 C   0  0  0  0  0  0  0  0  0  0  0  0
  137.1816  151.2533  143.6210 C   0  0  0  0  0  0  0  0  0  0  0  0
  137.4938  149.8956  141.5174 C   0  0  0  0  0  0  0  0  0  0  0  0
  136.2832  151.7830  144.8370 C   0  0  0  0  0  0  0  0  0  0  0  0
  136.5946  150.1893  142.6695 N   0  0  0  0  0  0  0  0  0  0  0  0
  136.6563  153.0370  145.3217 C   0  0  0  0  0  0  0  0  0  0  0  0
  1  2  2  0
  1  3  1  0
  2  4  1  0
  4  5  2  0
  3  6  1  0
  6  7  2  0
  7  8  1  0
  3  9  2  0
  5  9  1  0
  8 10  1  0
  8 11  2  0
  9 11  1  0
 10 12  1  0
M  END
$$$$

     RDKit          3D

 12 13  0  0  0  0  0  0  0  0999 V2000
  139.5547  150.5070  140.4456 C   0  0  0  0  0  0  0  0  0  0  0  0
  139.2168  150.0153  139.3732 C   0  0  0  0  0  0  0  0  0  0  0  0
  138.8576  150.3067  141.5853 C   0  0  0  0  0  0  0  0  0  0  0  0
  137.9795  149.2997  139.2377 C   0  0  0  0  0  0  0  0  0  0  0  0
  139.3339  150.9307  142.8848 C   0  0  0  0  0  0  0  0  0  0  0  0
  138.3147  151.4954  143.6107 C   0  0  0  0  0  0  0  0  0  0  0  0
  137.0055  151.1295  143.2688 C   0  0  0  0  0  0  0  0  0  0  0  0
  137.5345  148.7786  138.0862 C   0  0  0  0  0  0  0  0  0  0  0  0
  136.7968  150.4005  142.1177 C   0  0  0  0  0  0  0  0  0  0  0  0
  135.2850  150.0737  141.8015 C   0  0  0  0  0  0  0  0  0  0  0  0
  137.5701  150.0094  141.3557 C   0  0  0  0  0  0  0  0  0  0  0  0
  137.1295  149.3367  140.2347 C   0  0  0  0  0  0  0  0  0  0  0  0
  1  2  2  0
  1  3  1  0
  2  4  1  0
  3  5  1  0
  5  6  2  0
  6  7  1  0
  4  8  1  0
  7  9  2  0
  9 10  1  0
  3 11  2  0
  9 11  1  0
  4 12  2  0
 11 12  1  0
M  END
$$$$

     RDKit          3D

 12 13  0  0  0  0  0  0  0  0999 V2000
  138.9699  151.3138  142.5680 C   0  0  0  0  0  0  0  0  0  0  0  0
  138.6028  152.0884  143.2652 C   0  0  0  0  0  0  0  0  0  0  0  0
  139.7631  151.4673  141.3548 C   0  0  0  0  0  0  0  0  0  0  0  0
  137.7630  151.7029  144.3616 C   0  0  0  0  0  0  0  0  0  0  0  0
  137.3920  150.3001  144.2733 C   0  0  0  0  0  0  0  0  0  0  0  0
  139.5876  150.5258  140.3061 C   0  0  0  0  0  0  0  0  0  0  0  0
  138.2954  149.8905  142.6518 C   0  0  0  0  0  0  0  0  0  0  0  0
  138.8817  149.4406  140.3346 C   0  0  0  0  0  0  0  0  0  0  0  0
  140.4630  150.9833  139.1236 C   0  0  0  0  0  0  0  0  0  0  0  0
  136.4806  149.9382  145.4453 C   0  0  0  0  0  0  0  0  0  0  0  0
  137.6398  149.4887  143.3694 C   0  0  0  0  0  0  0  0  0  0  0  0
  138.4609  149.0711  141.3479 N   0  0  0  0  0  0  0  0  0  0  0  0
  1  2  1  0
  1  3  1  0
  2  4  2  0
  4  5  1  0
  3  6  2  0
  1  7  2  0
  6  8  1  0
  6  9  1  0
  5 10  1  0
  5 11  2  0
  7 11  1  0
  7 12  1  0
  8 12  2  0
M  END
$$$$

     RDKit          3D

 12 13  0  0  0  0  0  0  0  0999 V2000
  140.8778  150.5419  139.7337 Cl  0  0  0  0  0  0  0  0  0  0  0  0
  138.9614  150.5329  140.4448 C   0  0  0  0  0  0  0  0  0  0  0  0
  138.2154  149.5089  139.9489 C   0  0  0  0  0  0  0  0  0  0  0  0
  139.1215  151.1800  141.6231 C   0  0  0  0  0  0  0  0  0  0  0  0
  138.0837  150.9004  142.5999 C   0  0  0  0  0  0  0  0  0  0  0  0
  137.1000  149.9215  142.1731 C   0  0  0  0  0  0  0  0  0  0  0  0
  135.9904  149.8133  143.1128 C   0  0  0  0  0  0  0  0  0  0  0  0
  136.2020  150.8803  144.1689 C   0  0  0  0  0  0  0  0  0  0  0  0
  136.9981  149.3556  140.8690 C   0  0  0  0  0  0  0  0  0  0  0  0
  137.9685  151.4286  143.9590 S   0  0  0  0  0  0  0  0  0  0  0  0
  135.9010  151.2506  145.3727 C   0  0  0  0  0  0  0  0  0  0  0  0
  135.1200  152.4574  145.6663 C   0  0  0  0  0  0  0  0  0  0  0  0
  1  2  1  0
  2  3  2  0
  2  4  1  0
  4  5  2  0
  5  6  1  0
  6  7  1  0
  7  8  1  0
  3  9  1  0
  6  9  2  0
  5 10  1  0
  8 10  1  0
  8 11  1  0
 11 12  1  0
M  END
$$$$

     RDKit          3D

 12 12  0  0  0  0  0  0  0  0999 V2000
  140.8778  150.5419  139.7337 Cl  0  0  0  0  0  0  0  0  0  0  0  0
  138.9614  150.5329  140.4448 C   0  0  0  0  0  0  0  0  0  0  0  0
  138.2154  149.5089  139.9489 C   0  0  0  0  0  0  0  0  0  0  0  0
  139.1215  151.1800  141.6231 C   0  0  0  0  0  0  0  0  0  0  0  0
  138.4409  150.9839  142.4827 C   0  0  0  0  0  0  0  0  0  0  0  0
  137.3041  149.9252  142.2693 C   0  0  0  0  0  0  0  0  0  0  0  0
  136.3910  149.8005  143.3483 C   0  0  0  0  0  0  0  0  0  0  0  0
  136.8248  150.0544  144.6651 C   0  0  0  0  0  0  0  0  0  0  0  0
  137.1159  149.3927  140.9659 C   0  0  0  0  0  0  0  0  0  0  0  0
  136.7528  151.4306  144.9962 C   0  0  0  0  0  0  0  0  0  0  0  0
  135.7547  151.9099  145.9156 C   0  0  0  0  0  0  0  0  0  0  0  0
  135.3033  153.2953  145.8763 C   0  0  0  0  0  0  0  0  0  0  0  0
  1  2  1  0
  2  3  2  0
  2  4  1  0
  4  5  2  0
  5  6  1  0
  6  7  1  0
  7  8  1  0
  3  9  1  0
  6  9  2  0
  8 10  1  0
 10 11  1  0
 11 12  1  0
M  END
$$$$

     RDKit          3D

 12 13  0  0  0  0  0  0  0  0999 V2000
  140.8778  150.5419  139.7337 Cl  0  0  0  0  0  0  0  0  0  0  0  0
  138.9614  150.5329  140.4448 C   0  0  0  0  0  0  0  0  0  0  0  0
  138.2154  149.5089  139.9489 C   0  0  0  0  0  0  0  0  0  0  0  0
  139.1215  151.1800  141.6231 C   0  0  0  0  0  0  0  0  0  0  0  0
  138.0837  150.9004  142.5999 C   0  0  0  0  0  0  0  0  0  0  0  0
  137.1000  149.9215  142.1731 C   0  0  0  0  0  0  0  0  0  0  0  0
  137.9738  151.4115  144.0977 C   0  0  0  0  0  0  0  0  0  0  0  0
  135.9463  149.8332  143.0462 C   0  0  0  0  0  0  0  0  0  0  0  0
  137.0103  149.4477  140.8009 C   0  0  0  0  0  0  0  0  0  0  0  0
  136.9071  151.1599  144.7394 C   0  0  0  0  0  0  0  0  0  0  0  0
  136.8971  151.7958  146.1138 C   0  0  0  0  0  0  0  0  0  0  0  0
  135.7991  150.5013  144.6049 C   0  0  0  0  0  0  0  0  0  0  0  0
  1  2  1  0
  2  3  2  0
  2  4  1  0
  4  5  2  0
  5  6  1  0
  5  7  1  0
  6  8  1  0
  3  9  1  0
  6  9  2  0
  7 10  2  0
 10 11  1  0
  8 12  1  0
 10 12  1  0
M  END
$$$$

     RDKit          3D

 13 14  0  0  0  0  0  0  0  0999 V2000
  140.3036  150.2147  139.4796 Cl  0  0  0  0  0  0  0  0  0  0  0  0
  138.6769  150.1876  140.5325 C   0  0  0  0  0  0  0  0  0  0  0  0
  137.6372  149.3844  140.0947 C   0  0  0  0  0  0  0  0  0  0  0  0
  139.2395  150.7156  141.5763 C   0  0  0  0  0  0  0  0  0  0  0  0
  138.3571  151.0517  142.3779 C   0  0  0  0  0  0  0  0  0  0  0  0
  136.5108  149.6332  140.9987 C   0  0  0  0  0  0  0  0  0  0  0  0
  138.6460  151.8147  143.7096 C   0  0  0  0  0  0  0  0  0  0  0  0
  137.6153  151.9265  144.6546 C   0  0  0  0  0  0  0  0  0  0  0  0
  136.4418  151.2576  144.3060 C   0  0  0  0  0  0  0  0  0  0  0  0
  135.4225  151.4094  145.3947 C   0  0  0  0  0  0  0  0  0  0  0  0
  136.9391  150.5222  142.1974 C   0  0  0  0  0  0  0  0  0  0  0  0
  134.7381  152.4260  145.5719 C   0  0  0  0  0  0  0  0  0  0  0  0
  135.8580  150.8065  143.1538 N   0  0  0  0  0  0  0  0  0  0  0  0
  1  2  1  0
  2  3  1  0
  2  4  2  0
  4  5  1  0
  3  6  2  0
  5  7  1  0
  7  8  2  0
  8  9  1  0
  9 10  1  0
  5 11  2  0
  6 11  1  0
 10 12  1  0
  9 13  2  0
 11 13  1  0
M  END
$$$$

     RDKit          3D

 13 13  0  0  0  0  0  0  0  0999 V2000
  138.9699  151.3138  142.5680 C   0  0  0  0  0  0  0  0  0  0  0  0
  138.6028  152.0884  143.2652 C   0  0  0  0  0  0  0  0  0  0  0  0
  137.6691  151.8112  144.0575 C   0  0  0  0  0  0  0  0  0  0  0  0
  136.5758  152.7066  144.5957 C   0  0  0  0  0  0  0  0  0  0  0  0
  135.5865  152.4520  145.5239 C   0  0  0  0  0  0  0  0  0  0  0  0
  139.9119  151.4259  141.3573 C   0  0  0  0  0  0  0  0  0  0  0  0
  135.6786  150.9924  145.8717 C   0  0  0  0  0  0  0  0  0  0  0  0
  137.2821  150.4143  144.6542 C   0  0  0  0  0  0  0  0  0  0  0  0
  138.3181  149.5410  144.1306 O   0  0  0  0  0  0  0  0  0  0  0  0
  139.7259  150.5519  140.2474 C   0  0  0  0  0  0  0  0  0  0  0  0
  140.6734  150.4338  139.2275 C   0  0  0  0  0  0  0  0  0  0  0  0
  134.6495  150.7123  146.9944 C   0  0  0  0  0  0  0  0  0  0  0  0
  136.4094  149.9093  145.4715 C   0  0  0  0  0  0  0  0  0  0  0  0
  1  2  2  3
  2  3  1  0
  3  4  1  0
  4  5  2  0
  1  6  1  0
  5  7  1  0
  3  8  2  0
  8  9  1  0
  6 10  2  3
 10 11  1  0
  7 12  1  0
  7 13  2  0
  8 13  1  0
M  END
$$$$

     RDKit          3D

 13 13  0  0  0  0  0  0  0  0999 V2000
  140.8778  150.5419  139.7337 Cl  0  0  0  0  0  0  0  0  0  0  0  0
  138.9614  150.5329  140.4448 C   0  0  0  0  0  0  0  0  0  0  0  0
  138.2154  149.5089  139.9489 C   0  0  0  0  0  0  0  0  0  0  0  0
  138.9058  151.3604  141.4410 C   0  0  0  0  0  0  0  0  0  0  0  0
  137.7037  151.1653  142.2004 C   0  0  0  0  0  0  0  0  0  0  0  0
  137.6067  151.8428  143.5371 C   0  0  0  0  0  0  0  0  0  0  0  0
  138.3430  148.9052  138.7322 C   0  0  0  0  0  0  0  0  0  0  0  0
  136.3884  151.8014  144.2972 C   0  0  0  0  0  0  0  0  0  0  0  0
  135.6332  150.9001  144.3783 C   0  0  0  0  0  0  0  0  0  0  0  0
  136.1122  152.9753  145.1732 C   0  0  0  0  0  0  0  0  0  0  0  0
  136.8921  149.5885  140.4709 C   0  0  0  0  0  0  0  0  0  0  0  0
  135.8452  148.8084  140.0715 C   0  0  0  0  0  0  0  0  0  0  0  0
  136.7920  150.3644  141.6896 N   0  0  0  0  0  0  0  0  0  0  0  0
  1  2  1  0
  2  3  1  0
  2  4  2  0
  4  5  1  0
  5  6  1  0
  3  7  1  0
  6  8  1  0
  8  9  2  0
  8 10  1  0
  3 11  2  0
 11 12  1  0
  5 13  2  0
 11 13  1  0
M  END
$$$$

     RDKit          3D

 13 14  0  0  0  0  0  0  0  0999 V2000
  138.9699  151.3138  142.5680 C   0  0  0  0  0  0  0  0  0  0  0  0
  138.6028  152.0884  143.2652 C   0  0  0  0  0  0  0  0  0  0  0  0
  137.6691  151.8112  144.0575 C   0  0  0  0  0  0  0  0  0  0  0  0
  136.5758  152.7066  144.5957 C   0  0  0  0  0  0  0  0  0  0  0  0
  139.8386  151.3584  141.3360 C   0  0  0  0  0  0  0  0  0  0  0  0
  139.5471  150.6838  140.2459 C   0  0  0  0  0  0  0  0  0  0  0  0
  135.4857  152.3771  145.3632 C   0  0  0  0  0  0  0  0  0  0  0  0
  138.3934  149.9290  140.2900 C   0  0  0  0  0  0  0  0  0  0  0  0
  135.5440  150.9337  145.7078 C   0  0  0  0  0  0  0  0  0  0  0  0
  137.2401  150.3968  144.5252 C   0  0  0  0  0  0  0  0  0  0  0  0
  138.3405  150.0159  142.2674 C   0  0  0  0  0  0  0  0  0  0  0  0
  136.2708  150.1075  145.3589 C   0  0  0  0  0  0  0  0  0  0  0  0
  137.9267  149.4694  141.3124 C   0  0  0  0  0  0  0  0  0  0  0  0
  1  2  2  3
  2  3  1  0
  3  4  1  0
  1  5  1  0
  5  6  2  0
  4  7  2  0
  6  8  1  0
  7  9  1  0
  3 10  2  0
  1 11  1  0
  9 12  2  0
 10 12  1  0
  8 13  2  0
 11 13  1  0
M  END
$$$$

     RDKit          3D

 13 14  0  0  0  0  0  0  0  0999 V2000
  140.3036  150.2147  139.4796 Cl  0  0  0  0  0  0  0  0  0  0  0  0
  138.6769  150.1876  140.5325 C   0  0  0  0  0  0  0  0  0  0  0  0
  137.6372  149.3844  140.0947 C   0  0  0  0  0  0  0  0  0  0  0  0
  138.7726  150.9306  141.6506 C   0  0  0  0  0  0  0  0  0  0  0  0
  137.6840  150.8870  142.5431 C   0  0  0  0  0  0  0  0  0  0  0  0
  136.5884  150.1098  142.1532 C   0  0  0  0  0  0  0  0  0  0  0  0
  137.6052  148.7876  138.8600 C   0  0  0  0  0  0  0  0  0  0  0  0
  137.7623  151.6047  143.8687 C   0  0  0  0  0  0  0  0  0  0  0  0
  135.4489  150.3378  143.1346 C   0  0  0  0  0  0  0  0  0  0  0  0
  136.7517  151.5860  144.4053 C   0  0  0  0  0  0  0  0  0  0  0  0
  136.4342  149.4926  140.9487 C   0  0  0  0  0  0  0  0  0  0  0  0
  135.5294  151.0380  144.2121 C   0  0  0  0  0  0  0  0  0  0  0  0
  136.7767  152.4729  145.9547 C   0  0  0  0  0  0  0  0  0  0  0  0
  1  2  1  0
  2  3  1  0
  2  4  2  0
  4  5  1  0
  5  6  2  0
  3  7  1  0
  5  8  1  0
  6  9  1  0
  8 10  2  0
  3 11  2  0
  6 11  1  0
  9 12  2  0
 10 12  1  0
 10 13  1  0
M  END
$$$$

     RDKit          3D

 13 13  0  0  0  0  0  0  0  0999 V2000
  140.8778  150.5419  139.7337 Cl  0  0  0  0  0  0  0  0  0  0  0  0
  138.9614  150.5329  140.4448 C   0  0  0  0  0  0  0  0  0  0  0  0
  138.2154  149.5089  139.9489 C   0  0  0  0  0  0  0  0  0  0  0  0
  139.1215  151.1800  141.6231 C   0  0  0  0  0  0  0  0  0  0  0  0
  138.4409  150.9839  142.4827 C   0  0  0  0  0  0  0  0  0  0  0  0
  137.3041  149.9252  142.2693 C   0  0  0  0  0  0  0  0  0  0  0  0
  136.3910  149.8005  143.3483 C   0  0  0  0  0  0  0  0  0  0  0  0
  136.8248  150.0544  144.6651 C   0  0  0  0  0  0  0  0  0  0  0  0
  136.9683  151.5255  144.8360 C   0  0  0  0  0  0  0  0  0  0  0  0
  138.0898  149.0605  138.7160 C   0  0  0  0  0  0  0  0  0  0  0  0
  136.9769  149.4782  141.0216 C   0  0  0  0  0  0  0  0  0  0  0  0
  136.2515  152.3700  145.4516 C   0  0  0  0  0  0  0  0  0  0  0  0
  134.7883  152.2746  145.5933 C   0  0  0  0  0  0  0  0  0  0  0  0
  1  2  1  0
  2  3  2  0
  2  4  1  0
  4  5  2  0
  5  6  1  0
  6  7  1  0
  7  8  1  0
  8  9  1  0
  3 10  1  0
  3 11  1  0
  6 11  2  0
  9 12  2  3
 12 13  1  0
M  END
$$$$

     RDKit          3D

 13 13  0  0  0  0  0  0  0  0999 V2000
  140.8778  150.5419  139.7337 Cl  0  0  0  0  0  0  0  0  0  0  0  0
  138.9614  150.5329  140.4448 C   0  0  0  0  0  0  0  0  0  0  0  0
  138.2154  149.5089  139.9489 C   0  0  0  0  0  0  0  0  0  0  0  0
  139.1215  151.1800  141.6231 C   0  0  0  0  0  0  0  0  0  0  0  0
  138.4409  150.9839  142.4827 C   0  0  0  0  0  0  0  0  0  0  0  0
  137.3041  149.9252  142.2693 C   0  0  0  0  0  0  0  0  0  0  0  0
  136.3910  149.8005  143.3483 C   0  0  0  0  0  0  0  0  0  0  0  0
  136.8248  150.0544  144.6651 C   0  0  0  0  0  0  0  0  0  0  0  0
  137.1159  149.3927  140.9659 C   0  0  0  0  0  0  0  0  0  0  0  0
  136.7528  151.4306  144.9962 C   0  0  0  0  0  0  0  0  0  0  0  0
  135.7547  151.9099  145.9156 C   0  0  0  0  0  0  0  0  0  0  0  0
  135.0452  151.2569  146.6359 C   0  0  0  0  0  0  0  0  0  0  0  0
  135.2998  153.3155  145.8329 C   0  0  0  0  0  0  0  0  0  0  0  0
  1  2  1  0
  2  3  2  0
  2  4  1  0
  4  5  2  0
  5  6  1  0
  6  7  1  0
  7  8  1  0
  3  9  1  0
  6  9  2  0
  8 10  1  0
 10 11  1  0
 11 12  2  0
 11 13  1  0
M  END
$$$$

     RDKit          3D

 13 14  0  0  0  0  0  0  0  0999 V2000
  138.7092  151.1474  142.6270 C   0  0  0  0  0  0  0  0  0  0  0  0
  138.5252  151.9373  143.5111 C   0  0  0  0  0  0  0  0  0  0  0  0
  137.4746  151.6736  144.4636 C   0  0  0  0  0  0  0  0  0  0  0  0
  138.0112  149.8671  142.4730 C   0  0  0  0  0  0  0  0  0  0  0  0
  136.7207  150.4820  144.2961 C   0  0  0  0  0  0  0  0  0  0  0  0
  137.0165  149.5954  143.3275 C   0  0  0  0  0  0  0  0  0  0  0  0
  137.1308  152.6404  145.4946 C   0  0  0  0  0  0  0  0  0  0  0  0
  139.7954  151.3214  141.5588 C   0  0  0  0  0  0  0  0  0  0  0  0
  139.6343  150.8455  140.3344 C   0  0  0  0  0  0  0  0  0  0  0  0
  138.6084  150.0001  139.9900 C   0  0  0  0  0  0  0  0  0  0  0  0
  138.4577  149.6309  138.6504 C   0  0  0  0  0  0  0  0  0  0  0  0
  138.0108  149.2763  141.1301 C   0  0  0  0  0  0  0  0  0  0  0  0
  136.0840  153.2029  145.4443 C   0  0  0  0  0  0  0  0  0  0  0  0
  1  2  2  0
  2  3  1  0
  1  4  1  0
  3  5  2  0
  4  6  2  0
  5  6  1  0
  3  7  1  0
  1  8  1  0
  8  9  2  0
  9 10  1  0
 10 11  1  0
  4 12  1  0
 10 12  2  0
  7 13  1  0
M  END
$$$$

     RDKit          3D

 13 14  0  0  0  0  0  0  0  0999 V2000
  138.9699  151.3138  142.5680 C   0  0  0  0  0  0  0  0  0  0  0  0
  138.6028  152.0884  143.2652 C   0  0  0  0  0  0  0  0  0  0  0  0
  137.4868  151.7382  144.1979 C   0  0  0  0  0  0  0  0  0  0  0  0
  139.9964  151.3955  141.4280 C   0  0  0  0  0  0  0  0  0  0  0  0
  139.7128  150.7435  140.2231 C   0  0  0  0  0  0  0  0  0  0  0  0
  137.0980  150.3607  143.9160 C   0  0  0  0  0  0  0  0  0  0  0  0
  138.4640  149.8986  142.0939 C   0  0  0  0  0  0  0  0  0  0  0  0
  138.9093  149.6851  140.2985 C   0  0  0  0  0  0  0  0  0  0  0  0
  136.7346  152.3723  145.2066 C   0  0  0  0  0  0  0  0  0  0  0  0
  136.8762  153.6464  145.4225 C   0  0  0  0  0  0  0  0  0  0  0  0
  135.7109  151.6608  145.8605 C   0  0  0  0  0  0  0  0  0  0  0  0
  137.4959  149.3593  142.9778 N   0  0  0  0  0  0  0  0  0  0  0  0
  134.9017  152.4025  146.7120 C   0  0  0  0  0  0  0  0  0  0  0  0
  1  2  1  0
  2  3  2  0
  1  4  1  0
  4  5  2  0
  3  6  1  0
  1  7  2  0
  5  8  1  0
  7  8  1  0
  3  9  1  0
  9 10  1  0
  9 11  2  3
  6 12  1  0
  7 12  1  0
 11 13  1  0
M  END
$$$$

     RDKit          3D

 13 14  0  0  0  0  0  0  0  0999 V2000
  138.7092  151.1474  142.6270 C   0  0  0  0  0  0  0  0  0  0  0  0
  138.5252  151.9373  143.5111 C   0  0  0  0  0  0  0  0  0  0  0  0
  137.4746  151.6736  144.4636 C   0  0  0  0  0  0  0  0  0  0  0  0
  138.0112  149.8671  142.4730 C   0  0  0  0  0  0  0  0  0  0  0  0
  136.7207  150.4820  144.2961 C   0  0  0  0  0  0  0  0  0  0  0  0
  137.0165  149.5954  143.3275 C   0  0  0  0  0  0  0  0  0  0  0  0
  137.1308  152.6404  145.4946 C   0  0  0  0  0  0  0  0  0  0  0  0
  139.7954  151.3214  141.5588 C   0  0  0  0  0  0  0  0  0  0  0  0
  139.6343  150.8455  140.3344 C   0  0  0  0  0  0  0  0  0  0  0  0
  138.6084  150.0001  139.9900 C   0  0  0  0  0  0  0  0  0  0  0  0
  136.0139  153.2128  145.3964 C   0  0  0  0  0  0  0  0  0  0  0  0
  138.4364  149.6266  138.6630 C   0  0  0  0  0  0  0  0  0  0  0  0
  137.9937  149.2743  141.1256 N   0  0  0  0  0  0  0  0  0  0  0  0
  1  2  2  0
  2  3  1  0
  1  4  1  0
  3  5  2  0
  4  6  2  0
  5  6  1  0
  3  7  1  0
  1  8  1  0
  8  9  2  0
  9 10  1  0
  7 11  1  0
 10 12  1  0
  4 13  1  0
 10 13  2  0
M  END
$$$$

     RDKit          3D

 13 14  0  0  0  0  0  0  0  0999 V2000
  140.8778  150.5419  139.7337 Cl  0  0  0  0  0  0  0  0  0  0  0  0
  138.9614  150.5329  140.4448 C   0  0  0  0  0  0  0  0  0  0  0  0
  138.2154  149.5089  139.9489 C   0  0  0  0  0  0  0  0  0  0  0  0
  139.1215  151.1800  141.6231 C   0  0  0  0  0  0  0  0  0  0  0  0
  136.9605  149.3885  140.7339 C   0  0  0  0  0  0  0  0  0  0  0  0
  137.9303  151.0355  142.4683 C   0  0  0  0  0  0  0  0  0  0  0  0
  137.8494  151.6718  143.7483 C   0  0  0  0  0  0  0  0  0  0  0  0
  135.8228  148.8105  140.2738 C   0  0  0  0  0  0  0  0  0  0  0  0
  136.6677  151.4846  144.4811 C   0  0  0  0  0  0  0  0  0  0  0  0
  135.7681  150.6519  144.0910 C   0  0  0  0  0  0  0  0  0  0  0  0
  136.7730  150.1321  142.0184 C   0  0  0  0  0  0  0  0  0  0  0  0
  135.6171  150.1188  142.8311 C   0  0  0  0  0  0  0  0  0  0  0  0
  136.7064  152.1095  145.8399 C   0  0  0  0  0  0  0  0  0  0  0  0
  1  2  1  0
  2  3  2  0
  2  4  1  0
  3  5  1  0
  4  6  2  0
  6  7  1  0
  5  8  1  0
  7  9  2  0
  9 10  1  0
  5 11  2  0
  6 11  1  0
 10 12  2  0
 11 12  1  0
  9 13  1  0
M  END
$$$$

     RDKit          3D

 13 14  0  0  0  0  0  0  0  0999 V2000
  139.5547  150.5070  140.4456 C   0  0  0  0  0  0  0  0  0  0  0  0
  139.2168  150.0153  139.3732 C   0  0  0  0  0  0  0  0  0  0  0  0
  138.8576  150.3067  141.5853 C   0  0  0  0  0  0  0  0  0  0  0  0
  137.9795  149.2997  139.2377 C   0  0  0  0  0  0  0  0  0  0  0  0
  139.3339  150.9307  142.8848 C   0  0  0  0  0  0  0  0  0  0  0  0
  138.3147  151.4954  143.6107 C   0  0  0  0  0  0  0  0  0  0  0  0
  137.0055  151.1295  143.2688 C   0  0  0  0  0  0  0  0  0  0  0  0
  137.4982  149.8915  141.4959 C   0  0  0  0  0  0  0  0  0  0  0  0
  135.9455  151.6889  144.0869 C   0  0  0  0  0  0  0  0  0  0  0  0
  136.6640  150.3085  142.2134 C   0  0  0  0  0  0  0  0  0  0  0  0
  137.6080  148.7209  138.0772 C   0  0  0  0  0  0  0  0  0  0  0  0
  136.1965  152.1839  145.1885 N   0  0  0  0  0  0  0  0  0  0  0  0
  137.0902  149.0253  140.5170 N   0  0  0  0  0  0  0  0  0  0  0  0
  1  2  2  0
  1  3  1  0
  2  4  1  0
  3  5  1  0
  5  6  2  0
  6  7  1  0
  3  8  2  0
  7  9  1  0
  7 10  2  0
  8 10  1  0
  4 11  1  0
  9 12  1  0
  4 13  2  0
  8 13  1  0
M  END
$$$$

     RDKit          3D

 13 13  0  0  0  0  0  0  0  0999 V2000
  138.9699  151.3138  142.5680 C   0  0  0  0  0  0  0  0  0  0  0  0
  138.6028  152.0884  143.2652 C   0  0  0  0  0  0  0  0  0  0  0  0
  137.6691  151.8112  144.0575 C   0  0  0  0  0  0  0  0  0  0  0  0
  136.5758  152.7066  144.5957 C   0  0  0  0  0  0  0  0  0  0  0  0
  139.8386  151.3584  141.3360 C   0  0  0  0  0  0  0  0  0  0  0  0
  139.5471  150.6838  140.2459 C   0  0  0  0  0  0  0  0  0  0  0  0
  135.4857  152.3771  145.3632 C   0  0  0  0  0  0  0  0  0  0  0  0
  138.3934  149.9290  140.2900 C   0  0  0  0  0  0  0  0  0  0  0  0
  135.5440  150.9337  145.7078 C   0  0  0  0  0  0  0  0  0  0  0  0
  137.2401  150.3968  144.5252 C   0  0  0  0  0  0  0  0  0  0  0  0
  134.4825  150.6391  146.7262 C   0  0  0  0  0  0  0  0  0  0  0  0
  136.3954  149.9958  145.3196 C   0  0  0  0  0  0  0  0  0  0  0  0
  137.8025  149.3347  139.0471 C   0  0  0  0  0  0  0  0  0  0  0  0
  1  2  2  3
  2  3  1  0
  3  4  1  0
  1  5  1  0
  5  6  2  3
  4  7  2  0
  6  8  1  0
  7  9  1  0
  3 10  2  0
  9 11  1  0
  9 12  2  0
 10 12  1  0
  8 13  1  0
M  END
$$$$

     RDKit          3D

 13 14  0  0  0  0  0  0  0  0999 V2000
  139.5547  150.5070  140.4456 C   0  0  0  0  0  0  0  0  0  0  0  0
  139.2168  150.0153  139.3732 C   0  0  0  0  0  0  0  0  0  0  0  0
  138.8576  150.3067  141.5853 C   0  0  0  0  0  0  0  0  0  0  0  0
  137.9795  149.2997  139.2377 C   0  0  0  0  0  0  0  0  0  0  0  0
  139.3339  150.9307  142.8848 C   0  0  0  0  0  0  0  0  0  0  0  0
  138.3147  151.4954  143.6107 C   0  0  0  0  0  0  0  0  0  0  0  0
  137.0055  151.1295  143.2688 C   0  0  0  0  0  0  0  0  0  0  0  0
  137.4982  149.8915  141.4959 C   0  0  0  0  0  0  0  0  0  0  0  0
  135.9455  151.6889  144.0869 C   0  0  0  0  0  0  0  0  0  0  0  0
  136.6640  150.3085  142.2134 C   0  0  0  0  0  0  0  0  0  0  0  0
  137.1009  149.2632  140.3556 C   0  0  0  0  0  0  0  0  0  0  0  0
  136.0521  152.1350  145.1771 N   0  0  0  0  0  0  0  0  0  0  0  0
  135.0389  152.7704  145.9262 C   0  0  0  0  0  0  0  0  0  0  0  0
  1  2  2  0
  1  3  1  0
  2  4  1  0
  3  5  1  0
  5  6  2  0
  6  7  1  0
  3  8  2  0
  7  9  1  0
  7 10  2  0
  8 10  1  0
  4 11  2  0
  8 11  1  0
  9 12  1  0
 12 13  1  0
M  END
$$$$

     RDKit          3D

 13 14  0  0  0  0  0  0  0  0999 V2000
  139.5547  150.5070  140.4456 C   0  0  0  0  0  0  0  0  0  0  0  0
  139.2168  150.0153  139.3732 C   0  0  0  0  0  0  0  0  0  0  0  0
  138.8576  150.3067  141.5853 C   0  0  0  0  0  0  0  0  0  0  0  0
  137.9795  149.2997  139.2377 C   0  0  0  0  0  0  0  0  0  0  0  0
  137.2014  149.2065  140.2777 C   0  0  0  0  0  0  0  0  0  0  0  0
  139.3287  150.8974  142.9145 C   0  0  0  0  0  0  0  0  0  0  0  0
  138.3159  151.4430  143.6701 C   0  0  0  0  0  0  0  0  0  0  0  0
  137.1816  151.2533  143.6210 C   0  0  0  0  0  0  0  0  0  0  0  0
  137.4938  149.8956  141.5174 C   0  0  0  0  0  0  0  0  0  0  0  0
  136.5744  150.2665  142.6129 C   0  0  0  0  0  0  0  0  0  0  0  0
  136.1274  151.7640  144.7245 C   0  0  0  0  0  0  0  0  0  0  0  0
  136.3257  153.0174  145.2252 C   0  0  0  0  0  0  0  0  0  0  0  0
  135.3996  153.5240  146.2111 C   0  0  0  0  0  0  0  0  0  0  0  0
  1  2  2  0
  1  3  1  0
  2  4  1  0
  4  5  2  0
  3  6  1  0
  6  7  2  0
  7  8  1  0
  3  9  2  0
  5  9  1  0
  8 10  2  0
  9 10  1  0
  8 11  1  0
 11 12  1  0
 12 13  1  0
M  END
$$$$

     RDKit          3D

 13 14  0  0  0  0  0  0  0  0999 V2000
  139.5547  150.5070  140.4456 C   0  0  0  0  0  0  0  0  0  0  0  0
  139.2168  150.0153  139.3732 C   0  0  0  0  0  0  0  0  0  0  0  0
  138.8576  150.3067  141.5853 C   0  0  0  0  0  0  0  0  0  0  0  0
  137.9795  149.2997  139.2377 C   0  0  0  0  0  0  0  0  0  0  0  0
  137.2014  149.2065  140.2777 C   0  0  0  0  0  0  0  0  0  0  0  0
  139.3287  150.8974  142.9145 C   0  0  0  0  0  0  0  0  0  0  0  0
  138.3159  151.4430  143.6701 C   0  0  0  0  0  0  0  0  0  0  0  0
  137.1816  151.2533  143.6210 C   0  0  0  0  0  0  0  0  0  0  0  0
  137.4938  149.8956  141.5174 C   0  0  0  0  0  0  0  0  0  0  0  0
  136.2832  151.7830  144.8370 C   0  0  0  0  0  0  0  0  0  0  0  0
  136.5946  150.1893  142.6695 N   0  0  0  0  0  0  0  0  0  0  0  0
  135.2388  151.0841  145.2124 C   0  0  0  0  0  0  0  0  0  0  0  0
  136.5335  152.7648  145.1622 O   0  0  0  0  0  0  0  0  0  0  0  0
  1  2  2  0
  1  3  1  0
  2  4  1  0
  4  5  2  0
  3  6  1  0
  6  7  2  0
  7  8  1  0
  3  9  2  0
  5  9  1  0
  8 10  1  0
  8 11  2  0
  9 11  1  0
 10 12  1  0
 10 13  2  0
M  END
$$$$

     RDKit          3D

 13 13  0  0  0  0  0  0  0  0999 V2000
  138.9699  151.3138  142.5680 C   0  0  0  0  0  0  0  0  0  0  0  0
  138.6028  152.0884  143.2652 C   0  0  0  0  0  0  0  0  0  0  0  0
  137.6691  151.8112  144.0575 C   0  0  0  0  0  0  0  0  0  0  0  0
  136.5758  152.7066  144.5957 C   0  0  0  0  0  0  0  0  0  0  0  0
  135.5865  152.4520  145.5239 C   0  0  0  0  0  0  0  0  0  0  0  0
  139.9119  151.4259  141.3573 C   0  0  0  0  0  0  0  0  0  0  0  0
  135.6786  150.9924  145.8717 C   0  0  0  0  0  0  0  0  0  0  0  0
  137.2821  150.4143  144.6542 C   0  0  0  0  0  0  0  0  0  0  0  0
  138.3181  149.5410  144.1306 O   0  0  0  0  0  0  0  0  0  0  0  0
  139.7259  150.5519  140.2474 C   0  0  0  0  0  0  0  0  0  0  0  0
  138.5869  149.8231  140.2429 C   0  0  0  0  0  0  0  0  0  0  0  0
  136.4115  149.9859  145.4956 C   0  0  0  0  0  0  0  0  0  0  0  0
  138.2140  149.2455  138.9946 C   0  0  0  0  0  0  0  0  0  0  0  0
  1  2  2  3
  2  3  1  0
  3  4  1  0
  4  5  2  0
  1  6  1  0
  5  7  1  0
  3  8  2  0
  8  9  1  0
  6 10  2  3
 10 11  1  0
  7 12  2  0
  8 12  1  0
 11 13  1  0
M  END
$$$$

     RDKit          3D

 13 13  0  0  0  0  0  0  0  0999 V2000
  140.8778  150.5419  139.7337 Cl  0  0  0  0  0  0  0  0  0  0  0  0
  138.9614  150.5329  140.4448 C   0  0  0  0  0  0  0  0  0  0  0  0
  138.2154  149.5089  139.9489 C   0  0  0  0  0  0  0  0  0  0  0  0
  138.7771  151.4412  141.4365 C   0  0  0  0  0  0  0  0  0  0  0  0
  136.8868  149.4565  140.5916 C   0  0  0  0  0  0  0  0  0  0  0  0
  137.6251  151.1479  142.2653 C   0  0  0  0  0  0  0  0  0  0  0  0
  137.4362  151.8649  143.4953 C   0  0  0  0  0  0  0  0  0  0  0  0
  135.8751  148.6846  140.0404 C   0  0  0  0  0  0  0  0  0  0  0  0
  138.3363  152.6463  144.1560 C   0  0  0  0  0  0  0  0  0  0  0  0
  136.7274  150.2871  141.7640 C   0  0  0  0  0  0  0  0  0  0  0  0
  136.2463  151.6424  144.2971 C   0  0  0  0  0  0  0  0  0  0  0  0
  136.0787  152.0549  145.4048 C   0  0  0  0  0  0  0  0  0  0  0  0
  134.8705  152.6710  145.8660 C   0  0  0  0  0  0  0  0  0  0  0  0
  1  2  1  0
  2  3  2  0
  2  4  1  0
  3  5  1  0
  4  6  2  0
  6  7  1  0
  5  8  1  0
  7  9  1  0
  5 10  2  0
  6 10  1  0
  7 11  2  3
 11 12  1  0
 12 13  1  0
M  END
$$$$

     RDKit          3D

 13 14  0  0  0  0  0  0  0  0999 V2000
  140.3036  150.2147  139.4796 Cl  0  0  0  0  0  0  0  0  0  0  0  0
  138.6769  150.1876  140.5325 C   0  0  0  0  0  0  0  0  0  0  0  0
  137.6372  149.3844  140.0947 C   0  0  0  0  0  0  0  0  0  0  0  0
  138.7726  150.9306  141.6506 C   0  0  0  0  0  0  0  0  0  0  0  0
  137.6840  150.8870  142.5431 C   0  0  0  0  0  0  0  0  0  0  0  0
  136.5884  150.1098  142.1532 C   0  0  0  0  0  0  0  0  0  0  0  0
  137.6052  148.7876  138.8600 C   0  0  0  0  0  0  0  0  0  0  0  0
  137.7623  151.6047  143.8687 C   0  0  0  0  0  0  0  0  0  0  0  0
  135.4489  150.3378  143.1346 C   0  0  0  0  0  0  0  0  0  0  0  0
  136.6716  151.5959  144.6651 C   0  0  0  0  0  0  0  0  0  0  0  0
  136.4682  149.5499  140.9304 C   0  0  0  0  0  0  0  0  0  0  0  0
  135.4859  151.0000  144.3062 C   0  0  0  0  0  0  0  0  0  0  0  0
  136.7296  152.4061  146.1891 Cl  0  0  0  0  0  0  0  0  0  0  0  0
  1  2  1  0
  2  3  1  0
  2  4  2  0
  4  5  1  0
  5  6  2  0
  3  7  1  0
  5  8  1  0
  6  9  1  0
  8 10  2  0
  3 11  2  0
  6 11  1  0
  9 12  2  0
 10 12  1  0
 10 13  1  0
M  END
$$$$

     RDKit          3D

 13 14  0  0  0  0  0  0  0  0999 V2000
  140.8778  150.5419  139.7337 Cl  0  0  0  0  0  0  0  0  0  0  0  0
  138.9614  150.5329  140.4448 C   0  0  0  0  0  0  0  0  0  0  0  0
  138.2154  149.5089  139.9489 C   0  0  0  0  0  0  0  0  0  0  0  0
  139.1215  151.1800  141.6231 C   0  0  0  0  0  0  0  0  0  0  0  0
  136.9605  149.3885  140.7339 C   0  0  0  0  0  0  0  0  0  0  0  0
  137.9303  151.0355  142.4683 C   0  0  0  0  0  0  0  0  0  0  0  0
  137.8494  151.6718  143.7483 C   0  0  0  0  0  0  0  0  0  0  0  0
  135.8228  148.8105  140.2738 C   0  0  0  0  0  0  0  0  0  0  0  0
  136.6677  151.4846  144.4811 C   0  0  0  0  0  0  0  0  0  0  0  0
  135.7681  150.6519  144.0910 C   0  0  0  0  0  0  0  0  0  0  0  0
  136.7730  150.1321  142.0184 C   0  0  0  0  0  0  0  0  0  0  0  0
  135.6171  150.1188  142.8311 C   0  0  0  0  0  0  0  0  0  0  0  0
  136.6956  152.1851  145.9715 Cl  0  0  0  0  0  0  0  0  0  0  0  0
  1  2  1  0
  2  3  2  0
  2  4  1  0
  3  5  1  0
  4  6  2  0
  6  7  1  0
  5  8  1  0
  7  9  2  0
  9 10  1  0
  5 11  2  0
  6 11  1  0
 10 12  2  0
 11 12  1  0
  9 13  1  0
M  END
$$$$

     RDKit          3D

 13 14  0  0  0  0  0  0  0  0999 V2000
  140.3036  150.2147  139.4796 Cl  0  0  0  0  0  0  0  0  0  0  0  0
  138.6769  150.1876  140.5325 C   0  0  0  0  0  0  0  0  0  0  0  0
  137.6372  149.3844  140.0947 C   0  0  0  0  0  0  0  0  0  0  0  0
  138.7726  150.9306  141.6506 C   0  0  0  0  0  0  0  0  0  0  0  0
  137.6840  150.8870  142.5431 C   0  0  0  0  0  0  0  0  0  0  0  0
  136.5884  150.1098  142.1532 C   0  0  0  0  0  0  0  0  0  0  0  0
  137.6052  148.7876  138.8600 C   0  0  0  0  0  0  0  0  0  0  0  0
  137.7623  151.6047  143.8687 C   0  0  0  0  0  0  0  0  0  0  0  0
  135.4489  150.3378  143.1346 C   0  0  0  0  0  0  0  0  0  0  0  0
  135.6410  151.0220  144.3224 C   0  0  0  0  0  0  0  0  0  0  0  0
  134.4601  151.1563  145.2718 C   0  0  0  0  0  0  0  0  0  0  0  0
  136.4081  149.5912  140.9387 C   0  0  0  0  0  0  0  0  0  0  0  0
  136.8504  151.6215  144.7740 C   0  0  0  0  0  0  0  0  0  0  0  0
  1  2  1  0
  2  3  1  0
  2  4  2  0
  4  5  1  0
  5  6  2  0
  3  7  1  0
  5  8  1  0
  6  9  1  0
  9 10  2  0
 10 11  1  0
  3 12  2  0
  6 12  1  0
  8 13  2  0
 10 13  1  0
M  END
$$$$

     RDKit          3D

 13 13  0  0  0  0  0  0  0  0999 V2000
  140.8778  150.5419  139.7337 Cl  0  0  0  0  0  0  0  0  0  0  0  0
  138.9614  150.5329  140.4448 C   0  0  0  0  0  0  0  0  0  0  0  0
  138.2154  149.5089  139.9489 C   0  0  0  0  0  0  0  0  0  0  0  0
  138.9058  151.3604  141.4410 C   0  0  0  0  0  0  0  0  0  0  0  0
  137.7037  151.1653  142.2004 C   0  0  0  0  0  0  0  0  0  0  0  0
  137.6067  151.8428  143.5371 C   0  0  0  0  0  0  0  0  0  0  0  0
  138.3430  148.9052  138.7322 C   0  0  0  0  0  0  0  0  0  0  0  0
  136.3884  151.8014  144.2972 C   0  0  0  0  0  0  0  0  0  0  0  0
  135.6332  150.9001  144.3783 C   0  0  0  0  0  0  0  0  0  0  0  0
  136.1122  152.9753  145.1732 C   0  0  0  0  0  0  0  0  0  0  0  0
  136.8921  149.5885  140.4709 C   0  0  0  0  0  0  0  0  0  0  0  0
  135.8452  148.8084  140.0715 C   0  0  0  0  0  0  0  0  0  0  0  0
  136.7920  150.3644  141.6896 C   0  0  0  0  0  0  0  0  0  0  0  0
  1  2  1  0
  2  3  1  0
  2  4  2  0
  4  5  1  0
  5  6  1  0
  3  7  1  0
  6  8  1  0
  8  9  2  0
  8 10  1  0
  3 11  2  0
 11 12  1  0
  5 13  2  0
 11 13  1  0
M  END
$$$$

     RDKit          3D

 13 14  0  0  0  0  0  0  0  0999 V2000
  140.3036  150.2147  139.4796 Cl  0  0  0  0  0  0  0  0  0  0  0  0
  138.6769  150.1876  140.5325 C   0  0  0  0  0  0  0  0  0  0  0  0
  137.6372  149.3844  140.0947 C   0  0  0  0  0  0  0  0  0  0  0  0
  138.7726  150.9306  141.6506 C   0  0  0  0  0  0  0  0  0  0  0  0
  137.6840  150.8870  142.5431 C   0  0  0  0  0  0  0  0  0  0  0  0
  136.5884  150.1098  142.1532 C   0  0  0  0  0  0  0  0  0  0  0  0
  137.6052  148.7876  138.8600 C   0  0  0  0  0  0  0  0  0  0  0  0
  137.7623  151.6047  143.8687 C   0  0  0  0  0  0  0  0  0  0  0  0
  135.4489  150.3378  143.1346 C   0  0  0  0  0  0  0  0  0  0  0  0
  135.6410  151.0220  144.3224 C   0  0  0  0  0  0  0  0  0  0  0  0
  139.0971  152.0988  144.1182 O   0  0  0  0  0  0  0  0  0  0  0  0
  136.7792  151.5608  144.7524 C   0  0  0  0  0  0  0  0  0  0  0  0
  136.3627  149.5674  140.9101 C   0  0  0  0  0  0  0  0  0  0  0  0
  1  2  1  0
  2  3  1  0
  2  4  2  0
  4  5  1  0
  5  6  2  0
  3  7  1  0
  5  8  1  0
  6  9  1  0
  9 10  2  0
  8 11  1  0
  8 12  2  0
 10 12  1  0
  3 13  2  0
  6 13  1  0
M  END
$$$$

     RDKit          3D

 13 14  0  0  0  0  0  0  0  0999 V2000
  139.5547  150.5070  140.4456 C   0  0  0  0  0  0  0  0  0  0  0  0
  139.2168  150.0153  139.3732 C   0  0  0  0  0  0  0  0  0  0  0  0
  138.8576  150.3067  141.5853 C   0  0  0  0  0  0  0  0  0  0  0  0
  137.9795  149.2997  139.2377 C   0  0  0  0  0  0  0  0  0  0  0  0
  139.3339  150.9307  142.8848 C   0  0  0  0  0  0  0  0  0  0  0  0
  138.3147  151.4954  143.6107 C   0  0  0  0  0  0  0  0  0  0  0  0
  137.0055  151.1295  143.2688 C   0  0  0  0  0  0  0  0  0  0  0  0
  137.4982  149.8915  141.4959 C   0  0  0  0  0  0  0  0  0  0  0  0
  135.9455  151.6889  144.0869 C   0  0  0  0  0  0  0  0  0  0  0  0
  136.0442  152.1094  145.3455 C   0  0  0  0  0  0  0  0  0  0  0  0
  137.0735  149.3391  140.3180 C   0  0  0  0  0  0  0  0  0  0  0  0
  136.7019  150.2640  142.3107 N   0  0  0  0  0  0  0  0  0  0  0  0
  135.0069  152.8380  146.0175 C   0  0  0  0  0  0  0  0  0  0  0  0
  1  2  2  0
  1  3  1  0
  2  4  1  0
  3  5  1  0
  5  6  2  0
  6  7  1  0
  3  8  2  0
  7  9  1  0
  9 10  1  0
  4 11  2  0
  8 11  1  0
  7 12  2  0
  8 12  1  0
 10 13  1  0
M  END
$$$$

     RDKit          3D

 13 14  0  0  0  0  0  0  0  0999 V2000
  140.8778  150.5419  139.7337 Cl  0  0  0  0  0  0  0  0  0  0  0  0
  138.9614  150.5329  140.4448 C   0  0  0  0  0  0  0  0  0  0  0  0
  138.2154  149.5089  139.9489 C   0  0  0  0  0  0  0  0  0  0  0  0
  136.8617  149.5090  140.3210 C   0  0  0  0  0  0  0  0  0  0  0  0
  139.0012  151.0524  141.6434 C   0  0  0  0  0  0  0  0  0  0  0  0
  137.9608  150.9945  142.3904 C   0  0  0  0  0  0  0  0  0  0  0  0
  137.9126  151.5639  143.7849 C   0  0  0  0  0  0  0  0  0  0  0  0
  136.4856  150.0759  141.6547 C   0  0  0  0  0  0  0  0  0  0  0  0
  136.9274  150.7231  142.5126 C   0  0  0  0  0  0  0  0  0  0  0  0
  136.8589  151.5624  144.5024 C   0  0  0  0  0  0  0  0  0  0  0  0
  136.6420  152.0299  145.8732 C   0  0  0  0  0  0  0  0  0  0  0  0
  135.4592  152.8169  145.9986 C   0  0  0  0  0  0  0  0  0  0  0  0
  136.0286  150.9213  143.5359 N   0  0  0  0  0  0  0  0  0  0  0  0
  1  2  1  0
  2  3  2  0
  3  4  1  0
  2  5  1  0
  5  6  2  0
  6  7  1  0
  4  8  2  0
  6  9  1  0
  8  9  1  0
  7 10  2  0
 10 11  1  0
 11 12  1  0
  9 13  2  0
 10 13  1  0
M  END
$$$$

     RDKit          3D

 13 14  0  0  0  0  0  0  0  0999 V2000
  138.9699  151.3138  142.5680 C   0  0  0  0  0  0  0  0  0  0  0  0
  138.6028  152.0884  143.2652 C   0  0  0  0  0  0  0  0  0  0  0  0
  137.6691  151.8112  144.0575 C   0  0  0  0  0  0  0  0  0  0  0  0
  136.5758  152.7066  144.5957 C   0  0  0  0  0  0  0  0  0  0  0  0
  139.8386  151.3584  141.3360 C   0  0  0  0  0  0  0  0  0  0  0  0
  139.5471  150.6838  140.2459 C   0  0  0  0  0  0  0  0  0  0  0  0
  135.4857  152.3771  145.3632 C   0  0  0  0  0  0  0  0  0  0  0  0
  138.3934  149.9290  140.2900 C   0  0  0  0  0  0  0  0  0  0  0  0
  135.5440  150.9337  145.7078 C   0  0  0  0  0  0  0  0  0  0  0  0
  137.2401  150.3968  144.5252 C   0  0  0  0  0  0  0  0  0  0  0  0
  138.3405  150.0159  142.2674 C   0  0  0  0  0  0  0  0  0  0  0  0
  137.8855  149.4070  141.3690 C   0  0  0  0  0  0  0  0  0  0  0  0
  136.3838  150.0662  145.3673 C   0  0  0  0  0  0  0  0  0  0  0  0
  1  2  2  3
  2  3  1  0
  3  4  1  0
  1  5  1  0
  5  6  2  0
  4  7  2  0
  6  8  1  0
  7  9  1  0
  3 10  2  0
  1 11  1  0
  8 12  2  0
 11 12  2  0
  9 13  2  0
 10 13  1  0
M  END
$$$$

     RDKit          3D

 13 13  0  0  0  0  0  0  0  0999 V2000
  140.8778  150.5419  139.7337 Cl  0  0  0  0  0  0  0  0  0  0  0  0
  138.9614  150.5329  140.4448 C   0  0  0  0  0  0  0  0  0  0  0  0
  138.2154  149.5089  139.9489 C   0  0  0  0  0  0  0  0  0  0  0  0
  138.9058  151.3604  141.4410 C   0  0  0  0  0  0  0  0  0  0  0  0
  137.7037  151.1653  142.2004 C   0  0  0  0  0  0  0  0  0  0  0  0
  137.6067  151.8428  143.5371 C   0  0  0  0  0  0  0  0  0  0  0  0
  138.3430  148.9052  138.7322 C   0  0  0  0  0  0  0  0  0  0  0  0
  136.8732  149.5699  140.4218 C   0  0  0  0  0  0  0  0  0  0  0  0
  136.4078  151.7648  144.2552 C   0  0  0  0  0  0  0  0  0  0  0  0
  135.8394  148.7956  139.9495 C   0  0  0  0  0  0  0  0  0  0  0  0
  136.2366  152.6028  145.5267 C   0  0  0  0  0  0  0  0  0  0  0  0
  136.6584  150.3691  141.6787 C   0  0  0  0  0  0  0  0  0  0  0  0
  135.0641  152.3878  146.2825 C   0  0  0  0  0  0  0  0  0  0  0  0
  1  2  1  0
  2  3  1  0
  2  4  2  0
  4  5  1  0
  5  6  1  0
  3  7  1  0
  3  8  2  0
  6  9  2  3
  8 10  1  0
  9 11  1  0
  5 12  2  0
  8 12  1  0
 11 13  1  0
M  END
$$$$

     RDKit          3D

 13 14  0  0  0  0  0  0  0  0999 V2000
  139.2623  151.0928  142.4045 C   0  0  0  0  0  0  0  0  0  0  0  0
  138.8616  152.1314  142.9035 C   0  0  0  0  0  0  0  0  0  0  0  0
  137.9123  151.7989  143.7814 C   0  0  0  0  0  0  0  0  0  0  0  0
  138.8307  150.4000  141.6050 C   0  0  0  0  0  0  0  0  0  0  0  0
  137.2917  150.4868  143.7063 C   0  0  0  0  0  0  0  0  0  0  0  0
  139.3794  149.8759  140.3266 C   0  0  0  0  0  0  0  0  0  0  0  0
  138.6892  149.8717  139.2606 C   0  0  0  0  0  0  0  0  0  0  0  0
  137.6550  149.7523  142.3325 C   0  0  0  0  0  0  0  0  0  0  0  0
  140.7565  149.7417  140.3340 C   0  0  0  0  0  0  0  0  0  0  0  0
  141.2218  149.8962  139.0875 C   0  0  0  0  0  0  0  0  0  0  0  0
  140.4657  150.1152  138.0178 C   0  0  0  0  0  0  0  0  0  0  0  0
  141.1504  150.5391  136.7070 O   0  0  0  0  0  0  0  0  0  0  0  0
  139.1288  150.0545  137.9457 C   0  0  0  0  0  0  0  0  0  0  0  0
  1  2  1  0
  2  3  2  0
  1  4  2  0
  3  5  1  0
  4  6  1  0
  6  7  1  0
  4  8  1  0
  5  8  2  0
  6  9  2  0
  9 10  1  0
 10 11  2  0
 11 12  1  0
  7 13  2  0
 11 13  1  0
M  END
$$$$

     RDKit          3D

 13 14  0  0  0  0  0  0  0  0999 V2000
  139.5547  150.5070  140.4456 C   0  0  0  0  0  0  0  0  0  0  0  0
  139.2168  150.0153  139.3732 C   0  0  0  0  0  0  0  0  0  0  0  0
  138.8576  150.3067  141.5853 C   0  0  0  0  0  0  0  0  0  0  0  0
  137.9795  149.2997  139.2377 C   0  0  0  0  0  0  0  0  0  0  0  0
  139.3339  150.9307  142.8848 C   0  0  0  0  0  0  0  0  0  0  0  0
  138.3147  151.4954  143.6107 C   0  0  0  0  0  0  0  0  0  0  0  0
  137.0055  151.1295  143.2688 C   0  0  0  0  0  0  0  0  0  0  0  0
  137.4982  149.8915  141.4959 C   0  0  0  0  0  0  0  0  0  0  0  0
  135.9455  151.6889  144.0869 C   0  0  0  0  0  0  0  0  0  0  0  0
  136.6640  150.3085  142.2134 C   0  0  0  0  0  0  0  0  0  0  0  0
  137.6080  148.7209  138.0772 C   0  0  0  0  0  0  0  0  0  0  0  0
  136.1965  152.1839  145.1885 N   0  0  0  0  0  0  0  0  0  0  0  0
  137.1439  149.2716  140.4158 C   0  0  0  0  0  0  0  0  0  0  0  0
  1  2  2  0
  1  3  1  0
  2  4  1  0
  3  5  1  0
  5  6  2  0
  6  7  1  0
  3  8  2  0
  7  9  1  0
  7 10  2  0
  8 10  1  0
  4 11  1  0
  9 12  1  0
  4 13  2  0
  8 13  1  0
M  END
$$$$

     RDKit          3D

 13 14  0  0  0  0  0  0  0  0999 V2000
  138.9699  151.3138  142.5680 C   0  0  0  0  0  0  0  0  0  0  0  0
  138.6028  152.0884  143.2652 C   0  0  0  0  0  0  0  0  0  0  0  0
  137.4868  151.7382  144.1979 C   0  0  0  0  0  0  0  0  0  0  0  0
  139.9964  151.3955  141.4280 C   0  0  0  0  0  0  0  0  0  0  0  0
  137.1558  150.3526  144.0264 C   0  0  0  0  0  0  0  0  0  0  0  0
  139.8257  150.4770  140.3147 C   0  0  0  0  0  0  0  0  0  0  0  0
  138.8512  149.5063  140.5932 C   0  0  0  0  0  0  0  0  0  0  0  0
  137.7374  149.6559  143.0313 C   0  0  0  0  0  0  0  0  0  0  0  0
  136.9211  152.5669  145.1355 C   0  0  0  0  0  0  0  0  0  0  0  0
  138.3840  148.9298  139.5164 C   0  0  0  0  0  0  0  0  0  0  0  0
  138.4930  149.9993  142.0337 C   0  0  0  0  0  0  0  0  0  0  0  0
  135.6476  152.2983  145.6504 C   0  0  0  0  0  0  0  0  0  0  0  0
  140.6937  150.4305  139.2043 C   0  0  0  0  0  0  0  0  0  0  0  0
  1  2  1  0
  2  3  2  0
  1  4  1  0
  3  5  1  0
  4  6  2  0
  6  7  1  0
  5  8  2  0
  3  9  1  0
  7 10  1  0
  1 11  2  0
  7 11  1  0
  8 11  1  0
  9 12  1  0
  6 13  1  0
M  END
$$$$

     RDKit          3D

 13 14  0  0  0  0  0  0  0  0999 V2000
  139.5547  150.5070  140.4456 C   0  0  0  0  0  0  0  0  0  0  0  0
  139.2168  150.0153  139.3732 C   0  0  0  0  0  0  0  0  0  0  0  0
  138.8576  150.3067  141.5853 C   0  0  0  0  0  0  0  0  0  0  0  0
  137.9795  149.2997  139.2377 C   0  0  0  0  0  0  0  0  0  0  0  0
  137.2014  149.2065  140.2777 C   0  0  0  0  0  0  0  0  0  0  0  0
  139.3287  150.8974  142.9145 C   0  0  0  0  0  0  0  0  0  0  0  0
  138.3159  151.4430  143.6701 C   0  0  0  0  0  0  0  0  0  0  0  0
  137.1816  151.2533  143.6210 C   0  0  0  0  0  0  0  0  0  0  0  0
  137.4938  149.8956  141.5174 C   0  0  0  0  0  0  0  0  0  0  0  0
  136.5744  150.2665  142.6129 C   0  0  0  0  0  0  0  0  0  0  0  0
  136.2483  151.7760  144.5574 C   0  0  0  0  0  0  0  0  0  0  0  0
  135.3891  151.0551  145.2921 C   0  0  0  0  0  0  0  0  0  0  0  0
  136.1448  153.0791  144.6504 C   0  0  0  0  0  0  0  0  0  0  0  0
  1  2  2  0
  1  3  1  0
  2  4  1  0
  4  5  2  0
  3  6  1  0
  6  7  2  0
  7  8  1  0
  3  9  2  0
  5  9  1  0
  8 10  1  0
  9 10  1  0
  8 11  1  0
 11 12  2  0
 11 13  1  0
M  END
$$$$

     RDKit          3D

 13 14  0  0  0  0  0  0  0  0999 V2000
  140.8778  150.5419  139.7337 Cl  0  0  0  0  0  0  0  0  0  0  0  0
  138.9614  150.5329  140.4448 C   0  0  0  0  0  0  0  0  0  0  0  0
  138.2154  149.5089  139.9489 C   0  0  0  0  0  0  0  0  0  0  0  0
  136.8617  149.5090  140.3210 C   0  0  0  0  0  0  0  0  0  0  0  0
  139.0012  151.0524  141.6434 C   0  0  0  0  0  0  0  0  0  0  0  0
  137.9608  150.9945  142.3904 C   0  0  0  0  0  0  0  0  0  0  0  0
  137.9126  151.5639  143.7849 C   0  0  0  0  0  0  0  0  0  0  0  0
  136.4856  150.0759  141.6547 C   0  0  0  0  0  0  0  0  0  0  0  0
  136.9274  150.7231  142.5126 C   0  0  0  0  0  0  0  0  0  0  0  0
  136.8589  151.5624  144.5024 C   0  0  0  0  0  0  0  0  0  0  0  0
  136.6420  152.0299  145.8732 C   0  0  0  0  0  0  0  0  0  0  0  0
  135.9793  151.0680  143.6120 C   0  0  0  0  0  0  0  0  0  0  0  0
  135.7845  152.7484  146.0851 O   0  0  0  0  0  0  0  0  0  0  0  0
  1  2  1  0
  2  3  2  0
  3  4  1  0
  2  5  1  0
  5  6  2  0
  6  7  1  0
  4  8  2  0
  6  9  1  0
  8  9  1  0
  7 10  2  0
 10 11  1  0
  9 12  2  0
 10 12  1  0
 11 13  1  0
M  END
$$$$

     RDKit          3D

 13 14  0  0  0  0  0  0  0  0999 V2000
  138.9699  151.3138  142.5680 C   0  0  0  0  0  0  0  0  0  0  0  0
  138.6028  152.0884  143.2652 C   0  0  0  0  0  0  0  0  0  0  0  0
  137.4868  151.7382  144.1979 C   0  0  0  0  0  0  0  0  0  0  0  0
  139.9964  151.3955  141.4280 C   0  0  0  0  0  0  0  0  0  0  0  0
  137.1558  150.3526  144.0264 C   0  0  0  0  0  0  0  0  0  0  0  0
  139.8257  150.4770  140.3147 C   0  0  0  0  0  0  0  0  0  0  0  0
  138.8512  149.5063  140.5932 C   0  0  0  0  0  0  0  0  0  0  0  0
  138.3038  149.9668  142.1890 C   0  0  0  0  0  0  0  0  0  0  0  0
  136.6776  152.3989  145.1422 C   0  0  0  0  0  0  0  0  0  0  0  0
  136.8743  153.7254  145.3365 C   0  0  0  0  0  0  0  0  0  0  0  0
  135.5840  151.7952  145.7287 C   0  0  0  0  0  0  0  0  0  0  0  0
  137.4415  149.4553  143.1197 N   0  0  0  0  0  0  0  0  0  0  0  0
  134.6709  152.4176  146.2540 C   0  0  0  0  0  0  0  0  0  0  0  0
  1  2  1  0
  2  3  2  0
  1  4  1  0
  3  5  1  0
  4  6  2  0
  6  7  1  0
  1  8  2  0
  7  8  1  0
  3  9  1  0
  9 10  1  0
  9 11  2  3
  5 12  2  0
  8 12  1  0
 11 13  1  0
M  END
$$$$

     RDKit          3D

 13 14  0  0  0  0  0  0  0  0999 V2000
  140.8778  150.5419  139.7337 Cl  0  0  0  0  0  0  0  0  0  0  0  0
  138.9614  150.5329  140.4448 C   0  0  0  0  0  0  0  0  0  0  0  0
  138.2154  149.5089  139.9489 C   0  0  0  0  0  0  0  0  0  0  0  0
  136.8617  149.5090  140.3210 C   0  0  0  0  0  0  0  0  0  0  0  0
  139.0012  151.0524  141.6434 C   0  0  0  0  0  0  0  0  0  0  0  0
  137.9608  150.9945  142.3904 C   0  0  0  0  0  0  0  0  0  0  0  0
  137.9126  151.5639  143.7849 C   0  0  0  0  0  0  0  0  0  0  0  0
  136.4856  150.0759  141.6547 C   0  0  0  0  0  0  0  0  0  0  0  0
  136.9274  150.7231  142.5126 C   0  0  0  0  0  0  0  0  0  0  0  0
  136.8589  151.5624  144.5024 C   0  0  0  0  0  0  0  0  0  0  0  0
  136.6420  152.0299  145.8732 C   0  0  0  0  0  0  0  0  0  0  0  0
  135.4592  152.8169  145.9986 C   0  0  0  0  0  0  0  0  0  0  0  0
  136.0286  150.9213  143.5359 C   0  0  0  0  0  0  0  0  0  0  0  0
  1  2  1  0
  2  3  2  0
  3  4  1  0
  2  5  1  0
  5  6  2  0
  6  7  1  0
  4  8  2  0
  6  9  1  0
  8  9  1  0
  7 10  2  0
 10 11  1  0
 11 12  1  0
  9 13  2  0
 10 13  1  0
M  END
$$$$

     RDKit          3D

 13 13  0  0  0  0  0  0  0  0999 V2000
  138.7247  151.5764  143.3183 C   0  0  0  0  0  0  0  0  0  0  0  0
  137.9184  152.3259  143.7535 C   0  0  0  0  0  0  0  0  0  0  0  0
  136.7531  151.7836  144.4567 C   0  0  0  0  0  0  0  0  0  0  0  0
  136.8362  150.4414  144.7132 C   0  0  0  0  0  0  0  0  0  0  0  0
  138.7265  150.3748  143.0129 C   0  0  0  0  0  0  0  0  0  0  0  0
  135.9827  149.8124  145.6763 C   0  0  0  0  0  0  0  0  0  0  0  0
  139.5974  149.5764  142.2297 C   0  0  0  0  0  0  0  0  0  0  0  0
  139.7449  150.2202  140.9097 C   0  0  0  0  0  0  0  0  0  0  0  0
  137.6406  149.6107  143.9327 C   0  0  0  0  0  0  0  0  0  0  0  0
  140.2219  149.4855  139.7714 C   0  0  0  0  0  0  0  0  0  0  0  0
  135.5380  152.4300  145.1392 C   0  0  0  0  0  0  0  0  0  0  0  0
  135.5804  153.8038  145.1552 C   0  0  0  0  0  0  0  0  0  0  0  0
  139.9393  150.1468  138.4218 C   0  0  0  0  0  0  0  0  0  0  0  0
  1  2  1  0
  2  3  2  0
  3  4  1  0
  1  5  2  0
  4  6  1  0
  5  7  1  0
  7  8  1  0
  4  9  2  0
  5  9  1  0
  8 10  1  0
  3 11  1  0
 11 12  1  0
 10 13  1  0
M  END
$$$$

     RDKit          3D

 13 14  0  0  0  0  0  0  0  0999 V2000
  140.8778  150.5419  139.7337 Cl  0  0  0  0  0  0  0  0  0  0  0  0
  138.9614  150.5329  140.4448 C   0  0  0  0  0  0  0  0  0  0  0  0
  138.2154  149.5089  139.9489 C   0  0  0  0  0  0  0  0  0  0  0  0
  139.1215  151.1800  141.6231 C   0  0  0  0  0  0  0  0  0  0  0  0
  138.4409  150.9839  142.4827 C   0  0  0  0  0  0  0  0  0  0  0  0
  137.3041  149.9252  142.2693 C   0  0  0  0  0  0  0  0  0  0  0  0
  136.3910  149.8005  143.3483 C   0  0  0  0  0  0  0  0  0  0  0  0
  136.8248  150.0544  144.6651 C   0  0  0  0  0  0  0  0  0  0  0  0
  136.9683  151.5255  144.8360 C   0  0  0  0  0  0  0  0  0  0  0  0
  137.1204  149.3911  140.9845 C   0  0  0  0  0  0  0  0  0  0  0  0
  136.2480  152.3534  145.5250 C   0  0  0  0  0  0  0  0  0  0  0  0
  138.1769  152.0325  144.0653 C   0  0  0  0  0  0  0  0  0  0  0  0
  134.9589  151.9567  146.0089 C   0  0  0  0  0  0  0  0  0  0  0  0
  1  2  1  0
  2  3  2  0
  2  4  1  0
  4  5  2  0
  5  6  1  0
  6  7  1  0
  7  8  1  0
  8  9  1  0
  3 10  1  0
  6 10  2  0
  9 11  2  3
  5 12  1  0
  9 12  1  0
 11 13  1  0
M  END
$$$$

     RDKit          3D

 13 14  0  0  0  0  0  0  0  0999 V2000
  139.2623  151.0928  142.4045 C   0  0  0  0  0  0  0  0  0  0  0  0
  138.8616  152.1314  142.9035 C   0  0  0  0  0  0  0  0  0  0  0  0
  137.9123  151.7989  143.7814 C   0  0  0  0  0  0  0  0  0  0  0  0
  138.8307  150.4000  141.6050 C   0  0  0  0  0  0  0  0  0  0  0  0
  137.6881  149.9457  141.7522 C   0  0  0  0  0  0  0  0  0  0  0  0
  137.5093  152.6054  144.9569 C   0  0  0  0  0  0  0  0  0  0  0  0
  136.2294  152.8169  145.1366 C   0  0  0  0  0  0  0  0  0  0  0  0
  136.9209  149.3100  140.7028 C   0  0  0  0  0  0  0  0  0  0  0  0
  136.8325  150.7288  143.6621 C   0  0  0  0  0  0  0  0  0  0  0  0
  136.7813  150.2654  142.6241 C   0  0  0  0  0  0  0  0  0  0  0  0
  135.4276  151.9576  145.6101 C   0  0  0  0  0  0  0  0  0  0  0  0
  134.4689  151.9347  146.5829 C   0  0  0  0  0  0  0  0  0  0  0  0
  135.7685  150.7401  144.7760 C   0  0  0  0  0  0  0  0  0  0  0  0
  1  2  1  0
  2  3  2  0
  1  4  2  0
  4  5  1  0
  3  6  1  0
  6  7  2  0
  5  8  1  0
  3  9  1  0
  5 10  2  0
  9 10  1  0
  7 11  1  0
 11 12  1  0
  9 13  1  0
 11 13  1  0
M  END
$$$$

     RDKit          3D

 13 14  0  0  0  0  0  0  0  0999 V2000
  140.3036  150.2147  139.4796 Cl  0  0  0  0  0  0  0  0  0  0  0  0
  138.6769  150.1876  140.5325 C   0  0  0  0  0  0  0  0  0  0  0  0
  137.6372  149.3844  140.0947 C   0  0  0  0  0  0  0  0  0  0  0  0
  139.2395  150.7156  141.5763 C   0  0  0  0  0  0  0  0  0  0  0  0
  138.3571  151.0517  142.3779 C   0  0  0  0  0  0  0  0  0  0  0  0
  136.5108  149.6332  140.9987 C   0  0  0  0  0  0  0  0  0  0  0  0
  138.6460  151.8147  143.7096 C   0  0  0  0  0  0  0  0  0  0  0  0
  137.6153  151.9265  144.6546 C   0  0  0  0  0  0  0  0  0  0  0  0
  136.4418  151.2576  144.3060 C   0  0  0  0  0  0  0  0  0  0  0  0
  135.4225  151.4094  145.3947 C   0  0  0  0  0  0  0  0  0  0  0  0
  136.7423  150.4583  142.2400 C   0  0  0  0  0  0  0  0  0  0  0  0
  134.7373  152.4199  145.6083 C   0  0  0  0  0  0  0  0  0  0  0  0
  135.7646  150.7856  143.1325 C   0  0  0  0  0  0  0  0  0  0  0  0
  1  2  1  0
  2  3  1  0
  2  4  2  0
  4  5  1  0
  3  6  2  0
  5  7  1  0
  7  8  2  0
  8  9  1  0
  9 10  1  0
  5 11  2  0
  6 11  1  0
 10 12  2  0
  9 13  2  0
 11 13  1  0
M  END
$$$$

     RDKit          3D

 13 14  0  0  0  0  0  0  0  0999 V2000
  139.2623  151.0928  142.4045 C   0  0  0  0  0  0  0  0  0  0  0  0
  138.8616  152.1314  142.9035 C   0  0  0  0  0  0  0  0  0  0  0  0
  137.7829  151.8931  143.8930 C   0  0  0  0  0  0  0  0  0  0  0  0
  140.0683  150.9662  141.1540 C   0  0  0  0  0  0  0  0  0  0  0  0
  139.7970  150.5484  140.1018 C   0  0  0  0  0  0  0  0  0  0  0  0
  137.3714  150.5055  143.9905 C   0  0  0  0  0  0  0  0  0  0  0  0
  140.5294  150.5935  138.8561 C   0  0  0  0  0  0  0  0  0  0  0  0
  136.3579  150.2954  144.9989 C   0  0  0  0  0  0  0  0  0  0  0  0
  135.8365  151.5900  145.4651 C   0  0  0  0  0  0  0  0  0  0  0  0
  136.8561  152.4612  144.7441 C   0  0  0  0  0  0  0  0  0  0  0  0
  138.2101  149.7266  143.2002 C   0  0  0  0  0  0  0  0  0  0  0  0
  138.8627  149.8400  142.5928 C   0  0  0  0  0  0  0  0  0  0  0  0
  136.7056  153.8264  144.9010 C   0  0  0  0  0  0  0  0  0  0  0  0
  1  2  1  0
  2  3  2  0
  1  4  1  0
  4  5  2  3
  3  6  1  0
  5  7  1  0
  6  8  1  0
  8  9  2  0
  3 10  1  0
  9 10  1  0
  6 11  2  0
  1 12  2  0
 11 12  1  0
 10 13  2  0
M  END
$$$$

     RDKit          3D

 13 14  0  0  0  0  0  0  0  0999 V2000
  140.3036  150.2147  139.4796 Cl  0  0  0  0  0  0  0  0  0  0  0  0
  138.6769  150.1876  140.5325 C   0  0  0  0  0  0  0  0  0  0  0  0
  137.6372  149.3844  140.0947 C   0  0  0  0  0  0  0  0  0  0  0  0
  139.2395  150.7156  141.5763 C   0  0  0  0  0  0  0  0  0  0  0  0
  138.3571  151.0517  142.3779 C   0  0  0  0  0  0  0  0  0  0  0  0
  136.5108  149.6332  140.9987 C   0  0  0  0  0  0  0  0  0  0  0  0
  138.6460  151.8147  143.7096 C   0  0  0  0  0  0  0  0  0  0  0  0
  137.6153  151.9265  144.6546 C   0  0  0  0  0  0  0  0  0  0  0  0
  136.4418  151.2576  144.3060 C   0  0  0  0  0  0  0  0  0  0  0  0
  135.4225  151.4094  145.3947 C   0  0  0  0  0  0  0  0  0  0  0  0
  136.9030  150.5195  142.2060 C   0  0  0  0  0  0  0  0  0  0  0  0
  134.7384  152.4252  145.5808 C   0  0  0  0  0  0  0  0  0  0  0  0
  135.8469  150.8019  143.1508 C   0  0  0  0  0  0  0  0  0  0  0  0
  1  2  1  0
  2  3  1  0
  2  4  2  0
  4  5  1  0
  3  6  2  0
  5  7  1  0
  7  8  2  0
  8  9  1  0
  9 10  1  0
  5 11  2  0
  6 11  1  0
 10 12  1  0
  9 13  2  0
 11 13  1  0
M  END
$$$$

     RDKit          3D

 13 14  0  0  0  0  0  0  0  0999 V2000
  139.2623  151.0928  142.4045 C   0  0  0  0  0  0  0  0  0  0  0  0
  138.8616  152.1314  142.9035 C   0  0  0  0  0  0  0  0  0  0  0  0
  137.9123  151.7989  143.7814 C   0  0  0  0  0  0  0  0  0  0  0  0
  138.8307  150.4000  141.6050 C   0  0  0  0  0  0  0  0  0  0  0  0
  137.6881  149.9457  141.7522 C   0  0  0  0  0  0  0  0  0  0  0  0
  137.5093  152.6054  144.9569 C   0  0  0  0  0  0  0  0  0  0  0  0
  136.2294  152.8169  145.1366 C   0  0  0  0  0  0  0  0  0  0  0  0
  136.7612  150.7584  143.6309 C   0  0  0  0  0  0  0  0  0  0  0  0
  135.7274  151.1221  144.5705 C   0  0  0  0  0  0  0  0  0  0  0  0
  136.6201  150.1298  142.6216 C   0  0  0  0  0  0  0  0  0  0  0  0
  139.5550  149.6947  140.4498 C   0  0  0  0  0  0  0  0  0  0  0  0
  140.7926  150.0089  140.0969 C   0  0  0  0  0  0  0  0  0  0  0  0
  141.0718  150.3297  138.6987 C   0  0  0  0  0  0  0  0  0  0  0  0
  1  2  1  0
  2  3  2  0
  1  4  2  0
  4  5  1  0
  3  6  1  0
  6  7  2  0
  3  8  1  0
  7  9  1  0
  8  9  1  0
  5 10  1  0
  8 10  2  0
  4 11  1  0
 11 12  1  0
 12 13  2  0
M  END
$$$$

     RDKit          3D

 13 14  0  0  0  0  0  0  0  0999 V2000
  138.9699  151.3138  142.5680 C   0  0  0  0  0  0  0  0  0  0  0  0
  138.6028  152.0884  143.2652 C   0  0  0  0  0  0  0  0  0  0  0  0
  137.6691  151.8112  144.0575 C   0  0  0  0  0  0  0  0  0  0  0  0
  136.5758  152.7066  144.5957 C   0  0  0  0  0  0  0  0  0  0  0  0
  139.8386  151.3584  141.3360 C   0  0  0  0  0  0  0  0  0  0  0  0
  135.4778  152.3761  145.3561 C   0  0  0  0  0  0  0  0  0  0  0  0
  135.5311  150.9302  145.6901 C   0  0  0  0  0  0  0  0  0  0  0  0
  137.2472  150.4901  144.6565 C   0  0  0  0  0  0  0  0  0  0  0  0
  138.3749  149.5781  144.2436 C   0  0  0  0  0  0  0  0  0  0  0  0
  136.4326  150.0163  145.4821 C   0  0  0  0  0  0  0  0  0  0  0  0
  139.5334  150.5299  140.1895 C   0  0  0  0  0  0  0  0  0  0  0  0
  138.8954  149.7841  143.0753 C   0  0  0  0  0  0  0  0  0  0  0  0
  140.1048  150.5024  139.2343 C   0  0  0  0  0  0  0  0  0  0  0  0
  1  2  2  0
  2  3  1  0
  3  4  1  0
  1  5  1  0
  4  6  2  0
  6  7  1  0
  3  8  2  0
  8  9  1  0
  7 10  2  0
  8 10  1  0
  5 11  2  3
  1 12  1  0
  9 12  2  0
 11 13  1  0
M  END
$$$$

     RDKit          3D

 13 14  0  0  0  0  0  0  0  0999 V2000
  139.5547  150.5070  140.4456 C   0  0  0  0  0  0  0  0  0  0  0  0
  139.2168  150.0153  139.3732 C   0  0  0  0  0  0  0  0  0  0  0  0
  138.8576  150.3067  141.5853 C   0  0  0  0  0  0  0  0  0  0  0  0
  137.9795  149.2997  139.2377 C   0  0  0  0  0  0  0  0  0  0  0  0
  139.3339  150.9307  142.8848 C   0  0  0  0  0  0  0  0  0  0  0  0
  138.3147  151.4954  143.6107 C   0  0  0  0  0  0  0  0  0  0  0  0
  137.0055  151.1295  143.2688 C   0  0  0  0  0  0  0  0  0  0  0  0
  137.4982  149.8915  141.4959 C   0  0  0  0  0  0  0  0  0  0  0  0
  135.9455  151.6889  144.0869 C   0  0  0  0  0  0  0  0  0  0  0  0
  136.0442  152.1094  145.3455 C   0  0  0  0  0  0  0  0  0  0  0  0
  136.6133  150.3716  142.2629 C   0  0  0  0  0  0  0  0  0  0  0  0
  137.1391  149.1467  140.3553 N   0  0  0  0  0  0  0  0  0  0  0  0
  135.0047  152.7788  146.0565 C   0  0  0  0  0  0  0  0  0  0  0  0
  1  2  2  0
  1  3  1  0
  2  4  1  0
  3  5  1  0
  5  6  2  0
  6  7  1  0
  3  8  2  0
  7  9  1  0
  9 10  1  0
  7 11  2  0
  8 11  1  0
  4 12  2  0
  8 12  1  0
 10 13  1  0
M  END
$$$$

     RDKit          3D

 13 14  0  0  0  0  0  0  0  0999 V2000
  140.8778  150.5419  139.7337 Cl  0  0  0  0  0  0  0  0  0  0  0  0
  138.9614  150.5329  140.4448 C   0  0  0  0  0  0  0  0  0  0  0  0
  138.2154  149.5089  139.9489 C   0  0  0  0  0  0  0  0  0  0  0  0
  139.1215  151.1800  141.6231 C   0  0  0  0  0  0  0  0  0  0  0  0
  138.0837  150.9004  142.5999 C   0  0  0  0  0  0  0  0  0  0  0  0
  137.1000  149.9215  142.1731 C   0  0  0  0  0  0  0  0  0  0  0  0
  135.9904  149.8133  143.1128 C   0  0  0  0  0  0  0  0  0  0  0  0
  136.2020  150.8803  144.1689 C   0  0  0  0  0  0  0  0  0  0  0  0
  137.4491  151.3365  144.2920 C   0  0  0  0  0  0  0  0  0  0  0  0
  136.9723  149.4378  140.7211 C   0  0  0  0  0  0  0  0  0  0  0  0
  135.9194  150.9617  145.6569 C   0  0  0  0  0  0  0  0  0  0  0  0
  136.0534  152.2446  146.1625 C   0  0  0  0  0  0  0  0  0  0  0  0
  135.6352  153.3048  145.0645 C   0  0  0  0  0  0  0  0  0  0  0  0
  1  2  1  0
  2  3  2  0
  2  4  1  0
  4  5  2  0
  5  6  1  0
  6  7  1  0
  7  8  1  0
  5  9  1  0
  8  9  1  0
  3 10  1  0
  6 10  2  0
  8 11  1  0
 11 12  1  0
 12 13  1  0
M  END
$$$$

     RDKit          3D

 13 14  0  0  0  0  0  0  0  0999 V2000
  138.9699  151.3138  142.5680 C   0  0  0  0  0  0  0  0  0  0  0  0
  138.6028  152.0884  143.2652 C   0  0  0  0  0  0  0  0  0  0  0  0
  137.4868  151.7382  144.1979 C   0  0  0  0  0  0  0  0  0  0  0  0
  139.9964  151.3955  141.4280 C   0  0  0  0  0  0  0  0  0  0  0  0
  137.1558  150.3526  144.0264 C   0  0  0  0  0  0  0  0  0  0  0  0
  139.6376  150.7227  140.2351 C   0  0  0  0  0  0  0  0  0  0  0  0
  138.1369  149.9837  142.5220 C   0  0  0  0  0  0  0  0  0  0  0  0
  138.6490  149.8790  140.0582 C   0  0  0  0  0  0  0  0  0  0  0  0
  137.7311  149.4745  140.8941 C   0  0  0  0  0  0  0  0  0  0  0  0
  136.8346  152.5789  145.0438 C   0  0  0  0  0  0  0  0  0  0  0  0
  138.3538  149.3171  138.8039 C   0  0  0  0  0  0  0  0  0  0  0  0
  139.1320  149.3206  137.7259 C   0  0  0  0  0  0  0  0  0  0  0  0
  135.6095  152.1299  145.6234 C   0  0  0  0  0  0  0  0  0  0  0  0
  1  2  1  0
  2  3  2  0
  1  4  1  0
  3  5  1  0
  4  6  2  0
  1  7  2  0
  5  7  1  0
  6  8  1  0
  7  9  1  0
  8  9  1  0
  3 10  1  0
  8 11  2  3
 11 12  1  0
 10 13  1  0
M  END
$$$$

     RDKit          3D

 13 14  0  0  0  0  0  0  0  0999 V2000
  138.9699  151.3138  142.5680 C   0  0  0  0  0  0  0  0  0  0  0  0
  138.6028  152.0884  143.2652 C   0  0  0  0  0  0  0  0  0  0  0  0
  137.4868  151.7382  144.1979 C   0  0  0  0  0  0  0  0  0  0  0  0
  139.9964  151.3955  141.4280 C   0  0  0  0  0  0  0  0  0  0  0  0
  137.1558  150.3526  144.0264 C   0  0  0  0  0  0  0  0  0  0  0  0
  139.8257  150.4770  140.3147 C   0  0  0  0  0  0  0  0  0  0  0  0
  138.8512  149.5063  140.5932 C   0  0  0  0  0  0  0  0  0  0  0  0
  138.3136  149.9794  142.1449 C   0  0  0  0  0  0  0  0  0  0  0  0
  137.4382  149.4328  143.0559 C   0  0  0  0  0  0  0  0  0  0  0  0
  137.0223  152.5204  145.2435 C   0  0  0  0  0  0  0  0  0  0  0  0
  135.7285  152.2956  145.7695 C   0  0  0  0  0  0  0  0  0  0  0  0
  135.1991  151.2171  145.8403 C   0  0  0  0  0  0  0  0  0  0  0  0
  134.9984  153.4681  146.3058 C   0  0  0  0  0  0  0  0  0  0  0  0
  1  2  1  0
  2  3  2  0
  1  4  1  0
  3  5  1  0
  4  6  2  0
  6  7  1  0
  1  8  2  0
  7  8  1  0
  5  9  2  0
  8  9  1  0
  3 10  1  0
 10 11  1  0
 11 12  2  0
 11 13  1  0
M  END
$$$$

     RDKit          3D

 13 14  0  0  0  0  0  0  0  0999 V2000
  139.2623  151.0928  142.4045 C   0  0  0  0  0  0  0  0  0  0  0  0
  138.8616  152.1314  142.9035 C   0  0  0  0  0  0  0  0  0  0  0  0
  137.7829  151.8931  143.8930 C   0  0  0  0  0  0  0  0  0  0  0  0
  140.0683  150.9662  141.1540 C   0  0  0  0  0  0  0  0  0  0  0  0
  139.7970  150.5484  140.1018 C   0  0  0  0  0  0  0  0  0  0  0  0
  137.3714  150.5055  143.9905 C   0  0  0  0  0  0  0  0  0  0  0  0
  140.5294  150.5935  138.8561 C   0  0  0  0  0  0  0  0  0  0  0  0
  136.3579  150.2954  144.9989 C   0  0  0  0  0  0  0  0  0  0  0  0
  135.8365  151.5900  145.4651 C   0  0  0  0  0  0  0  0  0  0  0  0
  136.8561  152.4612  144.7441 C   0  0  0  0  0  0  0  0  0  0  0  0
  137.9377  149.6748  143.4763 N   0  0  0  0  0  0  0  0  0  0  0  0
  138.8058  149.8060  142.2332 C   0  0  0  0  0  0  0  0  0  0  0  0
  136.5301  153.7713  145.0170 C   0  0  0  0  0  0  0  0  0  0  0  0
  1  2  1  0
  2  3  2  0
  1  4  1  0
  4  5  2  3
  3  6  1  0
  5  7  1  0
  6  8  1  0
  8  9  2  0
  3 10  1  0
  9 10  1  0
  6 11  2  0
  1 12  2  0
 11 12  1  0
 10 13  2  0
M  END
$$$$

     RDKit          3D

 13 14  0  0  0  0  0  0  0  0999 V2000
  140.8778  150.5419  139.7337 Cl  0  0  0  0  0  0  0  0  0  0  0  0
  138.9614  150.5329  140.4448 C   0  0  0  0  0  0  0  0  0  0  0  0
  138.2154  149.5089  139.9489 C   0  0  0  0  0  0  0  0  0  0  0  0
  139.1215  151.1800  141.6231 C   0  0  0  0  0  0  0  0  0  0  0  0
  138.0837  150.9004  142.5999 C   0  0  0  0  0  0  0  0  0  0  0  0
  137.1000  149.9215  142.1731 C   0  0  0  0  0  0  0  0  0  0  0  0
  135.9904  149.8133  143.1128 C   0  0  0  0  0  0  0  0  0  0  0  0
  136.2020  150.8803  144.1689 C   0  0  0  0  0  0  0  0  0  0  0  0
  137.0013  149.3666  140.8539 C   0  0  0  0  0  0  0  0  0  0  0  0
  135.7607  151.0885  145.3687 C   0  0  0  0  0  0  0  0  0  0  0  0
  137.9131  151.4801  143.9167 C   0  0  0  0  0  0  0  0  0  0  0  0
  135.6344  152.1802  145.9343 C   0  0  0  0  0  0  0  0  0  0  0  0
  136.3302  153.3107  145.6544 O   0  0  0  0  0  0  0  0  0  0  0  0
  1  2  1  0
  2  3  2  0
  2  4  1  0
  4  5  2  0
  5  6  1  0
  6  7  1  0
  7  8  1  0
  3  9  1  0
  6  9  2  0
  8 10  1  0
  5 11  1  0
  8 11  1  0
 10 12  1  0
 12 13  1  0
M  END
$$$$

     RDKit          3D

 13 13  0  0  0  0  0  0  0  0999 V2000
  138.7247  151.5764  143.3183 C   0  0  0  0  0  0  0  0  0  0  0  0
  137.9184  152.3259  143.7535 C   0  0  0  0  0  0  0  0  0  0  0  0
  136.7531  151.7836  144.4567 C   0  0  0  0  0  0  0  0  0  0  0  0
  136.8362  150.4414  144.7132 C   0  0  0  0  0  0  0  0  0  0  0  0
  138.7265  150.3748  143.0129 C   0  0  0  0  0  0  0  0  0  0  0  0
  139.6213  149.6149  142.1899 C   0  0  0  0  0  0  0  0  0  0  0  0
  137.7198  149.6394  143.8762 C   0  0  0  0  0  0  0  0  0  0  0  0
  135.7877  152.5653  145.1966 C   0  0  0  0  0  0  0  0  0  0  0  0
  135.8578  153.9589  145.3460 C   0  0  0  0  0  0  0  0  0  0  0  0
  134.9669  151.9754  145.9658 C   0  0  0  0  0  0  0  0  0  0  0  0
  133.8803  152.5533  146.4129 C   0  0  0  0  0  0  0  0  0  0  0  0
  139.5137  150.0248  140.7670 C   0  0  0  0  0  0  0  0  0  0  0  0
  140.4145  150.2668  140.1436 C   0  0  0  0  0  0  0  0  0  0  0  0
  1  2  1  0
  2  3  2  0
  3  4  1  0
  1  5  2  0
  5  6  1  0
  4  7  2  0
  5  7  1  0
  3  8  1  0
  8  9  1  0
  8 10  2  3
 10 11  1  0
  6 12  1  0
 12 13  2  0
M  END
$$$$

     RDKit          3D

 13 14  0  0  0  0  0  0  0  0999 V2000
  138.9699  151.3138  142.5680 C   0  0  0  0  0  0  0  0  0  0  0  0
  138.6028  152.0884  143.2652 C   0  0  0  0  0  0  0  0  0  0  0  0
  137.4868  151.7382  144.1979 C   0  0  0  0  0  0  0  0  0  0  0  0
  139.9964  151.3955  141.4280 C   0  0  0  0  0  0  0  0  0  0  0  0
  139.7128  150.7435  140.2231 C   0  0  0  0  0  0  0  0  0  0  0  0
  138.4716  149.8474  142.3649 C   0  0  0  0  0  0  0  0  0  0  0  0
  138.2570  149.2998  141.1397 C   0  0  0  0  0  0  0  0  0  0  0  0
  140.5829  151.1306  139.0956 C   0  0  0  0  0  0  0  0  0  0  0  0
  138.9280  149.6228  140.1384 C   0  0  0  0  0  0  0  0  0  0  0  0
  137.0929  150.5269  144.3886 C   0  0  0  0  0  0  0  0  0  0  0  0
  136.6382  152.7155  144.9812 C   0  0  0  0  0  0  0  0  0  0  0  0
  137.8098  149.4398  143.6284 N   0  0  0  0  0  0  0  0  0  0  0  0
  135.4221  152.3730  145.4486 C   0  0  0  0  0  0  0  0  0  0  0  0
  1  2  1  0
  2  3  2  0
  1  4  1  0
  4  5  2  0
  1  6  2  0
  6  7  1  0
  5  8  1  0
  5  9  1  0
  7  9  2  0
  3 10  1  0
  3 11  1  0
  6 12  1  0
 10 12  2  0
 11 13  1  0
M  END
$$$$

     RDKit          3D

 13 14  0  0  0  0  0  0  0  0999 V2000
  139.3433  149.9930  140.5896 C   0  0  0  0  0  0  0  0  0  0  0  0
  138.9754  149.9376  139.3599 C   0  0  0  0  0  0  0  0  0  0  0  0
  138.5874  150.0785  141.6373 C   0  0  0  0  0  0  0  0  0  0  0  0
  137.6056  149.8677  139.0277 C   0  0  0  0  0  0  0  0  0  0  0  0
  137.1679  149.5005  137.7644 C   0  0  0  0  0  0  0  0  0  0  0  0
  136.7589  149.8820  140.2748 C   0  0  0  0  0  0  0  0  0  0  0  0
  139.0910  150.2701  143.0611 C   0  0  0  0  0  0  0  0  0  0  0  0
  138.2378  150.8887  144.0329 C   0  0  0  0  0  0  0  0  0  0  0  0
  137.1907  151.3478  143.7385 C   0  0  0  0  0  0  0  0  0  0  0  0
  137.2120  150.1608  141.5174 C   0  0  0  0  0  0  0  0  0  0  0  0
  136.2599  150.7460  142.5578 C   0  0  0  0  0  0  0  0  0  0  0  0
  136.2486  152.0080  144.7574 C   0  0  0  0  0  0  0  0  0  0  0  0
  136.5570  153.3477  145.0754 C   0  0  0  0  0  0  0  0  0  0  0  0
  1  2  2  0
  1  3  1  0
  2  4  1  0
  4  5  1  0
  4  6  2  0
  3  7  1  0
  7  8  2  0
  8  9  1  0
  3 10  2  0
  6 10  1  0
  9 11  2  0
 10 11  1  0
  9 12  1  0
 12 13  2  0
M  END
$$$$

     RDKit          3D

 13 14  0  0  0  0  0  0  0  0999 V2000
  138.9699  151.3138  142.5680 C   0  0  0  0  0  0  0  0  0  0  0  0
  138.6028  152.0884  143.2652 C   0  0  0  0  0  0  0  0  0  0  0  0
  137.6691  151.8112  144.0575 C   0  0  0  0  0  0  0  0  0  0  0  0
  136.5758  152.7066  144.5957 C   0  0  0  0  0  0  0  0  0  0  0  0
  139.8386  151.3584  141.3360 C   0  0  0  0  0  0  0  0  0  0  0  0
  135.4778  152.3761  145.3561 C   0  0  0  0  0  0  0  0  0  0  0  0
  135.5311  150.9302  145.6901 C   0  0  0  0  0  0  0  0  0  0  0  0
  137.2472  150.4901  144.6565 C   0  0  0  0  0  0  0  0  0  0  0  0
  138.3749  149.5781  144.2436 C   0  0  0  0  0  0  0  0  0  0  0  0
  139.6308  150.7649  140.3213 C   0  0  0  0  0  0  0  0  0  0  0  0
  140.4689  150.7140  139.1819 C   0  0  0  0  0  0  0  0  0  0  0  0
  138.9039  149.8194  143.0714 C   0  0  0  0  0  0  0  0  0  0  0  0
  136.4252  150.0358  145.4229 N   0  0  0  0  0  0  0  0  0  0  0  0
  1  2  2  0
  2  3  1  0
  3  4  1  0
  1  5  1  0
  4  6  2  0
  6  7  1  0
  3  8  2  0
  8  9  1  0
  5 10  2  3
 10 11  1  0
  1 12  1  0
  9 12  2  0
  7 13  2  0
  8 13  1  0
M  END
$$$$

     RDKit          3D

 13 13  0  0  0  0  0  0  0  0999 V2000
  140.8778  150.5419  139.7337 Cl  0  0  0  0  0  0  0  0  0  0  0  0
  138.9614  150.5329  140.4448 C   0  0  0  0  0  0  0  0  0  0  0  0
  138.2154  149.5089  139.9489 C   0  0  0  0  0  0  0  0  0  0  0  0
  138.9058  151.3604  141.4410 C   0  0  0  0  0  0  0  0  0  0  0  0
  137.7037  151.1653  142.2004 C   0  0  0  0  0  0  0  0  0  0  0  0
  137.6067  151.8428  143.5371 C   0  0  0  0  0  0  0  0  0  0  0  0
  138.3430  148.9052  138.7322 C   0  0  0  0  0  0  0  0  0  0  0  0
  136.8732  149.5699  140.4218 C   0  0  0  0  0  0  0  0  0  0  0  0
  136.4078  151.7648  144.2552 C   0  0  0  0  0  0  0  0  0  0  0  0
  135.8394  148.7956  139.9495 C   0  0  0  0  0  0  0  0  0  0  0  0
  136.6831  150.3147  141.6012 C   0  0  0  0  0  0  0  0  0  0  0  0
  135.2779  151.2278  143.8230 C   0  0  0  0  0  0  0  0  0  0  0  0
  136.5244  152.5296  145.5686 C   0  0  0  0  0  0  0  0  0  0  0  0
  1  2  1  0
  2  3  1  0
  2  4  2  0
  4  5  1  0
  5  6  1  0
  3  7  1  0
  3  8  2  0
  6  9  2  3
  8 10  1  0
  5 11  2  0
  8 11  1  0
  9 12  1  0
  9 13  1  0
M  END
$$$$

     RDKit          3D

 13 14  0  0  0  0  0  0  0  0999 V2000
  139.2623  151.0928  142.4045 C   0  0  0  0  0  0  0  0  0  0  0  0
  138.8616  152.1314  142.9035 C   0  0  0  0  0  0  0  0  0  0  0  0
  137.9123  151.7989  143.7814 C   0  0  0  0  0  0  0  0  0  0  0  0
  138.8307  150.4000  141.6050 C   0  0  0  0  0  0  0  0  0  0  0  0
  137.6881  149.9457  141.7522 C   0  0  0  0  0  0  0  0  0  0  0  0
  137.5093  152.6054  144.9569 C   0  0  0  0  0  0  0  0  0  0  0  0
  136.2294  152.8169  145.1366 C   0  0  0  0  0  0  0  0  0  0  0  0
  136.9209  149.3100  140.7028 C   0  0  0  0  0  0  0  0  0  0  0  0
  136.8325  150.7288  143.6621 C   0  0  0  0  0  0  0  0  0  0  0  0
  136.7813  150.2654  142.6241 C   0  0  0  0  0  0  0  0  0  0  0  0
  135.4276  151.9576  145.6101 C   0  0  0  0  0  0  0  0  0  0  0  0
  134.4689  151.9347  146.5829 C   0  0  0  0  0  0  0  0  0  0  0  0
  135.7357  150.6195  144.7668 C   0  0  0  0  0  0  0  0  0  0  0  0
  1  2  1  0
  2  3  2  0
  1  4  2  0
  4  5  1  0
  3  6  1  0
  6  7  2  0
  5  8  1  0
  3  9  1  0
  5 10  2  0
  9 10  1  0
  7 11  1  0
 11 12  1  0
  9 13  1  0
 11 13  2  0
M  END
$$$$

     RDKit          3D

 13 14  0  0  0  0  0  0  0  0999 V2000
  138.9699  151.3138  142.5680 C   0  0  0  0  0  0  0  0  0  0  0  0
  138.6028  152.0884  143.2652 C   0  0  0  0  0  0  0  0  0  0  0  0
  137.4868  151.7382  144.1979 C   0  0  0  0  0  0  0  0  0  0  0  0
  139.9964  151.3955  141.4280 C   0  0  0  0  0  0  0  0  0  0  0  0
  139.7128  150.7435  140.2231 C   0  0  0  0  0  0  0  0  0  0  0  0
  138.4716  149.8474  142.3649 C   0  0  0  0  0  0  0  0  0  0  0  0
  138.2570  149.2998  141.1397 C   0  0  0  0  0  0  0  0  0  0  0  0
  140.5829  151.1306  139.0956 C   0  0  0  0  0  0  0  0  0  0  0  0
  138.9280  149.6228  140.1384 C   0  0  0  0  0  0  0  0  0  0  0  0
  137.0929  150.5269  144.3886 C   0  0  0  0  0  0  0  0  0  0  0  0
  136.6382  152.7155  144.9812 C   0  0  0  0  0  0  0  0  0  0  0  0
  137.7109  149.4642  143.5692 N   0  0  0  0  0  0  0  0  0  0  0  0
  135.4348  152.3493  145.4297 C   0  0  0  0  0  0  0  0  0  0  0  0
  1  2  1  0
  2  3  2  0
  1  4  1  0
  4  5  2  0
  1  6  2  0
  6  7  1  0
  5  8  1  0
  5  9  1  0
  7  9  2  0
  3 10  1  0
  3 11  1  0
  6 12  1  0
 10 12  1  0
 11 13  1  0
M  END
$$$$

     RDKit          3D

 13 14  0  0  0  0  0  0  0  0999 V2000
  138.9699  151.3138  142.5680 C   0  0  0  0  0  0  0  0  0  0  0  0
  138.6028  152.0884  143.2652 C   0  0  0  0  0  0  0  0  0  0  0  0
  137.6691  151.8112  144.0575 C   0  0  0  0  0  0  0  0  0  0  0  0
  136.5758  152.7066  144.5957 C   0  0  0  0  0  0  0  0  0  0  0  0
  139.8386  151.3584  141.3360 C   0  0  0  0  0  0  0  0  0  0  0  0
  139.5471  150.6838  140.2459 C   0  0  0  0  0  0  0  0  0  0  0  0
  135.4857  152.3771  145.3632 C   0  0  0  0  0  0  0  0  0  0  0  0
  138.3934  149.9290  140.2900 C   0  0  0  0  0  0  0  0  0  0  0  0
  135.5440  150.9337  145.7078 C   0  0  0  0  0  0  0  0  0  0  0  0
  137.2401  150.3968  144.5252 C   0  0  0  0  0  0  0  0  0  0  0  0
  138.3405  150.0159  142.2674 C   0  0  0  0  0  0  0  0  0  0  0  0
  137.9504  149.4976  141.5267 C   0  0  0  0  0  0  0  0  0  0  0  0
  136.3822  150.0707  145.3734 C   0  0  0  0  0  0  0  0  0  0  0  0
  1  2  2  3
  2  3  1  0
  3  4  1  0
  1  5  1  0
  5  6  2  0
  4  7  2  0
  6  8  1  0
  7  9  1  0
  3 10  2  0
  1 11  1  0
  8 12  1  0
 11 12  2  0
  9 13  2  0
 10 13  1  0
M  END
$$$$

     RDKit          3D

 13 14  0  0  0  0  0  0  0  0999 V2000
  139.2623  151.0928  142.4045 C   0  0  0  0  0  0  0  0  0  0  0  0
  138.8616  152.1314  142.9035 C   0  0  0  0  0  0  0  0  0  0  0  0
  137.7829  151.8931  143.8930 C   0  0  0  0  0  0  0  0  0  0  0  0
  140.0683  150.9662  141.1540 C   0  0  0  0  0  0  0  0  0  0  0  0
  139.7970  150.5484  140.1018 C   0  0  0  0  0  0  0  0  0  0  0  0
  137.3714  150.5055  143.9905 C   0  0  0  0  0  0  0  0  0  0  0  0
  140.5294  150.5935  138.8561 C   0  0  0  0  0  0  0  0  0  0  0  0
  136.3579  150.2954  144.9989 C   0  0  0  0  0  0  0  0  0  0  0  0
  135.8365  151.5900  145.4651 C   0  0  0  0  0  0  0  0  0  0  0  0
  136.8561  152.4612  144.7441 C   0  0  0  0  0  0  0  0  0  0  0  0
  138.2101  149.7266  143.2002 C   0  0  0  0  0  0  0  0  0  0  0  0
  139.0847  149.9314  142.5256 C   0  0  0  0  0  0  0  0  0  0  0  0
  136.8921  153.9267  144.8746 C   0  0  0  0  0  0  0  0  0  0  0  0
  1  2  1  0
  2  3  2  0
  1  4  1  0
  4  5  2  3
  3  6  1  0
  5  7  1  0
  6  8  1  0
  8  9  2  0
  3 10  1  0
  9 10  1  0
  6 11  2  0
  1 12  2  0
 11 12  1  0
 10 13  1  0
M  END
$$$$

     RDKit          3D

 14 15  0  0  0  0  0  0  0  0999 V2000
  139.5547  150.5070  140.4456 C   0  0  0  0  0  0  0  0  0  0  0  0
  139.2168  150.0153  139.3732 C   0  0  0  0  0  0  0  0  0  0  0  0
  138.8576  150.3067  141.5853 C   0  0  0  0  0  0  0  0  0  0  0  0
  137.9795  149.2997  139.2377 C   0  0  0  0  0  0  0  0  0  0  0  0
  139.3339  150.9307  142.8848 C   0  0  0  0  0  0  0  0  0  0  0  0
  138.3147  151.4954  143.6107 C   0  0  0  0  0  0  0  0  0  0  0  0
  137.0055  151.1295  143.2688 C   0  0  0  0  0  0  0  0  0  0  0  0
  137.4982  149.8915  141.4959 C   0  0  0  0  0  0  0  0  0  0  0  0
  135.9455  151.6889  144.0869 C   0  0  0  0  0  0  0  0  0  0  0  0
  136.0442  152.1094  145.3455 C   0  0  0  0  0  0  0  0  0  0  0  0
  135.0808  152.9149  146.0345 C   0  0  0  0  0  0  0  0  0  0  0  0
  137.4863  148.8259  138.0341 C   0  0  0  0  0  0  0  0  0  0  0  0
  136.6523  150.3261  142.2122 C   0  0  0  0  0  0  0  0  0  0  0  0
  137.1543  149.2703  140.4329 N   0  0  0  0  0  0  0  0  0  0  0  0
  1  2  2  0
  1  3  1  0
  2  4  1  0
  3  5  1  0
  5  6  2  0
  6  7  1  0
  3  8  2  0
  7  9  1  0
  9 10  1  0
 10 11  1  0
  4 12  1  0
  7 13  2  0
  8 13  1  0
  4 14  2  0
  8 14  1  0
M  END
$$$$

     RDKit          3D

 14 15  0  0  0  0  0  0  0  0999 V2000
  138.9699  151.3138  142.5680 C   0  0  0  0  0  0  0  0  0  0  0  0
  138.6028  152.0884  143.2652 C   0  0  0  0  0  0  0  0  0  0  0  0
  137.6691  151.8112  144.0575 C   0  0  0  0  0  0  0  0  0  0  0  0
  136.5758  152.7066  144.5957 C   0  0  0  0  0  0  0  0  0  0  0  0
  135.5865  152.4520  145.5239 C   0  0  0  0  0  0  0  0  0  0  0  0
  139.9119  151.4259  141.3573 C   0  0  0  0  0  0  0  0  0  0  0  0
  135.6786  150.9924  145.8717 C   0  0  0  0  0  0  0  0  0  0  0  0
  137.2821  150.4143  144.6542 C   0  0  0  0  0  0  0  0  0  0  0  0
  138.3181  149.5410  144.1306 O   0  0  0  0  0  0  0  0  0  0  0  0
  136.4107  150.0079  145.4605 C   0  0  0  0  0  0  0  0  0  0  0  0
  139.6336  150.6961  140.2126 C   0  0  0  0  0  0  0  0  0  0  0  0
  138.4402  150.0007  140.2350 C   0  0  0  0  0  0  0  0  0  0  0  0
  138.1212  150.0659  142.2242 C   0  0  0  0  0  0  0  0  0  0  0  0
  137.8424  149.4822  141.0668 C   0  0  0  0  0  0  0  0  0  0  0  0
  1  2  2  3
  2  3  1  0
  3  4  1  0
  4  5  2  0
  1  6  1  0
  5  7  1  0
  3  8  2  0
  8  9  1  0
  7 10  2  0
  8 10  1  0
  6 11  2  0
 11 12  1  0
  1 13  1  0
 12 14  2  0
 13 14  2  0
M  END
$$$$

     RDKit          3D

 14 15  0  0  0  0  0  0  0  0999 V2000
  140.8778  150.5419  139.7337 Cl  0  0  0  0  0  0  0  0  0  0  0  0
  138.9614  150.5329  140.4448 C   0  0  0  0  0  0  0  0  0  0  0  0
  138.2154  149.5089  139.9489 C   0  0  0  0  0  0  0  0  0  0  0  0
  139.1215  151.1800  141.6231 C   0  0  0  0  0  0  0  0  0  0  0  0
  138.0837  150.9004  142.5999 C   0  0  0  0  0  0  0  0  0  0  0  0
  137.1000  149.9215  142.1731 C   0  0  0  0  0  0  0  0  0  0  0  0
  135.9904  149.8133  143.1128 C   0  0  0  0  0  0  0  0  0  0  0  0
  136.2020  150.8803  144.1689 C   0  0  0  0  0  0  0  0  0  0  0  0
  136.9981  149.3556  140.8690 C   0  0  0  0  0  0  0  0  0  0  0  0
  138.1133  151.3851  143.9344 C   0  0  0  0  0  0  0  0  0  0  0  0
  134.8513  151.0098  145.0628 C   0  0  0  0  0  0  0  0  0  0  0  0
  134.9313  152.1239  146.0938 C   0  0  0  0  0  0  0  0  0  0  0  0
  137.0630  151.4214  144.5070 N   0  0  0  0  0  0  0  0  0  0  0  0
  133.8080  152.6601  146.5402 C   0  0  0  0  0  0  0  0  0  0  0  0
  1  2  1  0
  2  3  2  0
  2  4  1  0
  4  5  2  0
  5  6  1  0
  6  7  1  0
  7  8  1  0
  3  9  1  0
  6  9  2  0
  5 10  1  0
  8 11  1  0
 11 12  2  3
  8 13  2  0
 10 13  1  0
 12 14  1  0
M  END
$$$$

     RDKit          3D

 14 15  0  0  0  0  0  0  0  0999 V2000
  138.7092  151.1474  142.6270 C   0  0  0  0  0  0  0  0  0  0  0  0
  138.5252  151.9373  143.5111 C   0  0  0  0  0  0  0  0  0  0  0  0
  137.3814  151.6573  144.3961 C   0  0  0  0  0  0  0  0  0  0  0  0
  139.7031  151.1128  141.6105 C   0  0  0  0  0  0  0  0  0  0  0  0
  136.7109  150.4281  144.0240 C   0  0  0  0  0  0  0  0  0  0  0  0
  137.9078  150.0157  142.3135 C   0  0  0  0  0  0  0  0  0  0  0  0
  136.8888  149.6171  143.0677 C   0  0  0  0  0  0  0  0  0  0  0  0
  137.0551  152.5116  145.4729 C   0  0  0  0  0  0  0  0  0  0  0  0
  139.8733  150.6462  140.3139 C   0  0  0  0  0  0  0  0  0  0  0  0
  138.9802  149.6640  139.9166 C   0  0  0  0  0  0  0  0  0  0  0  0
  137.9649  149.2715  141.1573 N   0  0  0  0  0  0  0  0  0  0  0  0
  135.7218  152.5341  145.9707 C   0  0  0  0  0  0  0  0  0  0  0  0
  138.9498  149.1317  138.7375 O   0  0  0  0  0  0  0  0  0  0  0  0
  134.9867  153.6056  146.2178 C   0  0  0  0  0  0  0  0  0  0  0  0
  1  2  1  0
  2  3  2  0
  1  4  1  0
  3  5  1  0
  1  6  2  0
  5  7  2  0
  6  7  1  0
  3  8  1  0
  4  9  2  0
  9 10  1  0
  6 11  1  0
 10 11  1  0
  8 12  1  0
 10 13  2  0
 12 14  1  0
M  END
$$$$

     RDKit          3D

 14 15  0  0  0  0  0  0  0  0999 V2000
  140.8778  150.5419  139.7337 Cl  0  0  0  0  0  0  0  0  0  0  0  0
  138.9614  150.5329  140.4448 C   0  0  0  0  0  0  0  0  0  0  0  0
  138.2154  149.5089  139.9489 C   0  0  0  0  0  0  0  0  0  0  0  0
  139.1215  151.1800  141.6231 C   0  0  0  0  0  0  0  0  0  0  0  0
  136.9605  149.3885  140.7339 C   0  0  0  0  0  0  0  0  0  0  0  0
  137.9303  151.0355  142.4683 C   0  0  0  0  0  0  0  0  0  0  0  0
  137.8494  151.6718  143.7483 C   0  0  0  0  0  0  0  0  0  0  0  0
  135.8228  148.8105  140.2738 C   0  0  0  0  0  0  0  0  0  0  0  0
  136.6677  151.4846  144.4811 C   0  0  0  0  0  0  0  0  0  0  0  0
  135.7681  150.6519  144.0910 C   0  0  0  0  0  0  0  0  0  0  0  0
  136.7730  150.1321  142.0184 C   0  0  0  0  0  0  0  0  0  0  0  0
  136.7682  152.2943  145.7642 C   0  0  0  0  0  0  0  0  0  0  0  0
  135.6545  150.1258  142.8577 N   0  0  0  0  0  0  0  0  0  0  0  0
  135.4089  152.6756  146.2876 C   0  0  0  0  0  0  0  0  0  0  0  0
  1  2  1  0
  2  3  2  0
  2  4  1  0
  3  5  1  0
  4  6  2  0
  6  7  1  0
  5  8  1  0
  7  9  2  0
  9 10  1  0
  5 11  2  0
  6 11  1  0
  9 12  1  0
 10 13  2  0
 11 13  1  0
 12 14  1  0
M  END
$$$$

     RDKit          3D

 14 15  0  0  0  0  0  0  0  0999 V2000
  139.3433  149.9930  140.5896 C   0  0  0  0  0  0  0  0  0  0  0  0
  138.9754  149.9376  139.3599 C   0  0  0  0  0  0  0  0  0  0  0  0
  138.5874  150.0785  141.6373 C   0  0  0  0  0  0  0  0  0  0  0  0
  137.6056  149.8677  139.0277 C   0  0  0  0  0  0  0  0  0  0  0  0
  137.1679  149.5005  137.7644 C   0  0  0  0  0  0  0  0  0  0  0  0
  136.7589  149.8820  140.2748 C   0  0  0  0  0  0  0  0  0  0  0  0
  139.0910  150.2701  143.0611 C   0  0  0  0  0  0  0  0  0  0  0  0
  138.2378  150.8887  144.0329 C   0  0  0  0  0  0  0  0  0  0  0  0
  137.1907  151.3478  143.7385 C   0  0  0  0  0  0  0  0  0  0  0  0
  137.2120  150.1608  141.5174 C   0  0  0  0  0  0  0  0  0  0  0  0
  136.2599  150.7460  142.5578 C   0  0  0  0  0  0  0  0  0  0  0  0
  136.2486  152.0080  144.7574 C   0  0  0  0  0  0  0  0  0  0  0  0
  135.3210  151.3770  145.4400 C   0  0  0  0  0  0  0  0  0  0  0  0
  134.4916  152.0779  146.4596 C   0  0  0  0  0  0  0  0  0  0  0  0
  1  2  2  0
  1  3  1  0
  2  4  1  0
  4  5  1  0
  4  6  2  0
  3  7  1  0
  7  8  2  0
  8  9  1  0
  3 10  2  0
  6 10  1  0
  9 11  2  0
 10 11  1  0
  9 12  1  0
 12 13  2  3
 13 14  1  0
M  END
$$$$

     RDKit          3D

 14 15  0  0  0  0  0  0  0  0999 V2000
  139.5547  150.5070  140.4456 C   0  0  0  0  0  0  0  0  0  0  0  0
  139.2168  150.0153  139.3732 C   0  0  0  0  0  0  0  0  0  0  0  0
  138.8576  150.3067  141.5853 C   0  0  0  0  0  0  0  0  0  0  0  0
  137.9795  149.2997  139.2377 C   0  0  0  0  0  0  0  0  0  0  0  0
  139.3339  150.9307  142.8848 C   0  0  0  0  0  0  0  0  0  0  0  0
  138.3147  151.4954  143.6107 C   0  0  0  0  0  0  0  0  0  0  0  0
  137.0055  151.1295  143.2688 C   0  0  0  0  0  0  0  0  0  0  0  0
  137.4982  149.8915  141.4959 C   0  0  0  0  0  0  0  0  0  0  0  0
  135.9455  151.6889  144.0869 C   0  0  0  0  0  0  0  0  0  0  0  0
  137.0807  149.3428  140.3321 C   0  0  0  0  0  0  0  0  0  0  0  0
  136.6679  150.2040  142.3179 N   0  0  0  0  0  0  0  0  0  0  0  0
  135.7249  151.5539  145.3081 C   0  0  0  0  0  0  0  0  0  0  0  0
  136.4917  150.8057  146.0720 C   0  0  0  0  0  0  0  0  0  0  0  0
  134.7219  152.3268  146.1564 C   0  0  0  0  0  0  0  0  0  0  0  0
  1  2  2  0
  1  3  1  0
  2  4  1  0
  3  5  1  0
  5  6  2  0
  6  7  1  0
  3  8  2  0
  7  9  1  0
  4 10  2  0
  8 10  1  0
  7 11  2  0
  8 11  1  0
  9 12  1  0
 12 13  2  0
 12 14  1  0
M  END
$$$$

     RDKit          3D

 14 15  0  0  0  0  0  0  0  0999 V2000
  138.9699  151.3138  142.5680 C   0  0  0  0  0  0  0  0  0  0  0  0
  138.6028  152.0884  143.2652 C   0  0  0  0  0  0  0  0  0  0  0  0
  137.6691  151.8112  144.0575 C   0  0  0  0  0  0  0  0  0  0  0  0
  136.5758  152.7066  144.5957 C   0  0  0  0  0  0  0  0  0  0  0  0
  135.5865  152.4520  145.5239 C   0  0  0  0  0  0  0  0  0  0  0  0
  139.9119  151.4259  141.3573 C   0  0  0  0  0  0  0  0  0  0  0  0
  135.6786  150.9924  145.8717 C   0  0  0  0  0  0  0  0  0  0  0  0
  137.2821  150.4143  144.6542 C   0  0  0  0  0  0  0  0  0  0  0  0
  138.3181  149.5410  144.1306 O   0  0  0  0  0  0  0  0  0  0  0  0
  136.4107  150.0079  145.4605 C   0  0  0  0  0  0  0  0  0  0  0  0
  139.6336  150.6961  140.2126 C   0  0  0  0  0  0  0  0  0  0  0  0
  138.4402  150.0007  140.2350 C   0  0  0  0  0  0  0  0  0  0  0  0
  138.1212  150.0659  142.2242 C   0  0  0  0  0  0  0  0  0  0  0  0
  137.7804  149.5582  141.0025 C   0  0  0  0  0  0  0  0  0  0  0  0
  1  2  2  3
  2  3  1  0
  3  4  1  0
  4  5  2  0
  1  6  1  0
  5  7  1  0
  3  8  2  0
  8  9  1  0
  7 10  2  0
  8 10  1  0
  6 11  2  0
 11 12  1  0
  1 13  1  0
 12 14  2  0
 13 14  1  0
M  END
$$$$

     RDKit          3D

 14 15  0  0  0  0  0  0  0  0999 V2000
  140.8778  150.5419  139.7337 Cl  0  0  0  0  0  0  0  0  0  0  0  0
  138.9614  150.5329  140.4448 C   0  0  0  0  0  0  0  0  0  0  0  0
  138.2154  149.5089  139.9489 C   0  0  0  0  0  0  0  0  0  0  0  0
  139.1215  151.1800  141.6231 C   0  0  0  0  0  0  0  0  0  0  0  0
  136.9605  149.3885  140.7339 C   0  0  0  0  0  0  0  0  0  0  0  0
  137.9303  151.0355  142.4683 C   0  0  0  0  0  0  0  0  0  0  0  0
  137.8494  151.6718  143.7483 C   0  0  0  0  0  0  0  0  0  0  0  0
  135.8228  148.8105  140.2738 C   0  0  0  0  0  0  0  0  0  0  0  0
  136.6677  151.4846  144.4811 C   0  0  0  0  0  0  0  0  0  0  0  0
  135.7681  150.6519  144.0910 C   0  0  0  0  0  0  0  0  0  0  0  0
  136.7730  150.1321  142.0184 C   0  0  0  0  0  0  0  0  0  0  0  0
  136.7682  152.2943  145.7642 C   0  0  0  0  0  0  0  0  0  0  0  0
  135.6545  150.1258  142.8577 C   0  0  0  0  0  0  0  0  0  0  0  0
  135.7469  153.0834  145.8824 C   0  0  0  0  0  0  0  0  0  0  0  0
  1  2  1  0
  2  3  2  0
  2  4  1  0
  3  5  1  0
  4  6  2  0
  6  7  1  0
  5  8  1  0
  7  9  2  0
  9 10  1  0
  5 11  2  0
  6 11  1  0
  9 12  1  0
 10 13  2  0
 11 13  1  0
 12 14  1  0
M  END
$$$$

     RDKit          3D

 14 15  0  0  0  0  0  0  0  0999 V2000
  139.2623  151.0928  142.4045 C   0  0  0  0  0  0  0  0  0  0  0  0
  138.8616  152.1314  142.9035 C   0  0  0  0  0  0  0  0  0  0  0  0
  137.9123  151.7989  143.7814 C   0  0  0  0  0  0  0  0  0  0  0  0
  138.8307  150.4000  141.6050 C   0  0  0  0  0  0  0  0  0  0  0  0
  137.2917  150.4868  143.7063 C   0  0  0  0  0  0  0  0  0  0  0  0
  139.3794  149.8759  140.3266 C   0  0  0  0  0  0  0  0  0  0  0  0
  138.6892  149.8717  139.2606 C   0  0  0  0  0  0  0  0  0  0  0  0
  137.6550  149.7523  142.3325 C   0  0  0  0  0  0  0  0  0  0  0  0
  140.7565  149.7417  140.3340 C   0  0  0  0  0  0  0  0  0  0  0  0
  141.2218  149.8962  139.0875 C   0  0  0  0  0  0  0  0  0  0  0  0
  140.4657  150.1152  138.0178 C   0  0  0  0  0  0  0  0  0  0  0  0
  141.1504  150.5391  136.7070 O   0  0  0  0  0  0  0  0  0  0  0  0
  137.1961  149.5774  139.3284 C   0  0  0  0  0  0  0  0  0  0  0  0
  139.1487  150.0023  137.9024 C   0  0  0  0  0  0  0  0  0  0  0  0
  1  2  1  0
  2  3  2  0
  1  4  2  0
  3  5  1  0
  4  6  1  0
  6  7  1  0
  4  8  1  0
  5  8  2  0
  6  9  2  0
  9 10  1  0
 10 11  2  0
 11 12  1  0
  7 13  1  0
  7 14  2  0
 11 14  1  0
M  END
$$$$

     RDKit          3D

 14 15  0  0  0  0  0  0  0  0999 V2000
  139.5547  150.5070  140.4456 C   0  0  0  0  0  0  0  0  0  0  0  0
  139.2168  150.0153  139.3732 C   0  0  0  0  0  0  0  0  0  0  0  0
  138.8576  150.3067  141.5853 C   0  0  0  0  0  0  0  0  0  0  0  0
  137.9795  149.2997  139.2377 C   0  0  0  0  0  0  0  0  0  0  0  0
  139.3339  150.9307  142.8848 C   0  0  0  0  0  0  0  0  0  0  0  0
  138.3147  151.4954  143.6107 C   0  0  0  0  0  0  0  0  0  0  0  0
  137.0055  151.1295  143.2688 C   0  0  0  0  0  0  0  0  0  0  0  0
  137.4982  149.8915  141.4959 C   0  0  0  0  0  0  0  0  0  0  0  0
  135.9455  151.6889  144.0869 C   0  0  0  0  0  0  0  0  0  0  0  0
  137.4569  148.8329  138.0637 C   0  0  0  0  0  0  0  0  0  0  0  0
  135.6006  151.4486  145.2992 C   0  0  0  0  0  0  0  0  0  0  0  0
  136.7410  150.2947  142.1996 C   0  0  0  0  0  0  0  0  0  0  0  0
  135.1435  152.5311  146.0938 C   0  0  0  0  0  0  0  0  0  0  0  0
  137.0846  149.2070  140.2996 N   0  0  0  0  0  0  0  0  0  0  0  0
  1  2  2  0
  1  3  1  0
  2  4  1  0
  3  5  1  0
  5  6  2  0
  6  7  1  0
  3  8  2  0
  7  9  1  0
  4 10  1  0
  9 11  2  3
  7 12  2  0
  8 12  1  0
 11 13  1  0
  4 14  2  0
  8 14  1  0
M  END
$$$$

     RDKit          3D

 14 15  0  0  0  0  0  0  0  0999 V2000
  140.3036  150.2147  139.4796 Cl  0  0  0  0  0  0  0  0  0  0  0  0
  138.6769  150.1876  140.5325 C   0  0  0  0  0  0  0  0  0  0  0  0
  137.6372  149.3844  140.0947 C   0  0  0  0  0  0  0  0  0  0  0  0
  138.7726  150.9306  141.6506 C   0  0  0  0  0  0  0  0  0  0  0  0
  137.6840  150.8870  142.5431 C   0  0  0  0  0  0  0  0  0  0  0  0
  136.5884  150.1098  142.1532 C   0  0  0  0  0  0  0  0  0  0  0  0
  137.6052  148.7876  138.8600 C   0  0  0  0  0  0  0  0  0  0  0  0
  137.7623  151.6047  143.8687 C   0  0  0  0  0  0  0  0  0  0  0  0
  135.4489  150.3378  143.1346 C   0  0  0  0  0  0  0  0  0  0  0  0
  136.6716  151.5959  144.6651 C   0  0  0  0  0  0  0  0  0  0  0  0
  136.4252  149.5116  140.9703 C   0  0  0  0  0  0  0  0  0  0  0  0
  136.8338  152.3609  145.9569 C   0  0  0  0  0  0  0  0  0  0  0  0
  135.6127  152.9387  146.4736 C   0  0  0  0  0  0  0  0  0  0  0  0
  135.4065  150.9818  144.3626 C   0  0  0  0  0  0  0  0  0  0  0  0
  1  2  1  0
  2  3  1  0
  2  4  2  0
  4  5  1  0
  5  6  2  0
  3  7  1  0
  5  8  1  0
  6  9  1  0
  8 10  2  0
  3 11  2  0
  6 11  1  0
 10 12  1  0
 12 13  1  0
  9 14  2  0
 10 14  1  0
M  END
$$$$

     RDKit          3D

 14 15  0  0  0  0  0  0  0  0999 V2000
  138.7247  151.5764  143.3183 C   0  0  0  0  0  0  0  0  0  0  0  0
  137.9184  152.3259  143.7535 C   0  0  0  0  0  0  0  0  0  0  0  0
  136.7531  151.7836  144.4567 C   0  0  0  0  0  0  0  0  0  0  0  0
  136.8362  150.4414  144.7132 C   0  0  0  0  0  0  0  0  0  0  0  0
  138.7265  150.3748  143.0129 C   0  0  0  0  0  0  0  0  0  0  0  0
  135.9827  149.8124  145.6763 C   0  0  0  0  0  0  0  0  0  0  0  0
  139.5974  149.5764  142.2297 C   0  0  0  0  0  0  0  0  0  0  0  0
  139.7449  150.2202  140.9097 C   0  0  0  0  0  0  0  0  0  0  0  0
  137.6406  149.6107  143.9327 C   0  0  0  0  0  0  0  0  0  0  0  0
  140.2219  149.4855  139.7714 C   0  0  0  0  0  0  0  0  0  0  0  0
  135.5380  152.4300  145.1392 C   0  0  0  0  0  0  0  0  0  0  0  0
  140.6407  150.3301  138.6909 C   0  0  0  0  0  0  0  0  0  0  0  0
  134.8185  151.7998  145.9747 C   0  0  0  0  0  0  0  0  0  0  0  0
  134.9778  150.4594  146.3818 C   0  0  0  0  0  0  0  0  0  0  0  0
  1  2  1  0
  2  3  2  0
  3  4  1  0
  1  5  2  0
  4  6  1  0
  5  7  1  0
  7  8  1  0
  4  9  2  0
  5  9  1  0
  8 10  1  0
  3 11  1  0
 10 12  1  0
 11 13  2  0
  6 14  2  0
 13 14  1  0
M  END
$$$$

     RDKit          3D

 14 15  0  0  0  0  0  0  0  0999 V2000
  139.5547  150.5070  140.4456 C   0  0  0  0  0  0  0  0  0  0  0  0
  139.2168  150.0153  139.3732 C   0  0  0  0  0  0  0  0  0  0  0  0
  138.8576  150.3067  141.5853 C   0  0  0  0  0  0  0  0  0  0  0  0
  137.9795  149.2997  139.2377 C   0  0  0  0  0  0  0  0  0  0  0  0
  139.3339  150.9307  142.8848 C   0  0  0  0  0  0  0  0  0  0  0  0
  138.3147  151.4954  143.6107 C   0  0  0  0  0  0  0  0  0  0  0  0
  137.0055  151.1295  143.2688 C   0  0  0  0  0  0  0  0  0  0  0  0
  137.4982  149.8915  141.4959 C   0  0  0  0  0  0  0  0  0  0  0  0
  135.9455  151.6889  144.0869 C   0  0  0  0  0  0  0  0  0  0  0  0
  136.0442  152.1094  145.3455 C   0  0  0  0  0  0  0  0  0  0  0  0
  135.0808  152.9149  146.0345 C   0  0  0  0  0  0  0  0  0  0  0  0
  137.4863  148.8259  138.0341 C   0  0  0  0  0  0  0  0  0  0  0  0
  136.6523  150.3261  142.2122 C   0  0  0  0  0  0  0  0  0  0  0  0
  137.0854  149.2038  140.2956 C   0  0  0  0  0  0  0  0  0  0  0  0
  1  2  2  0
  1  3  1  0
  2  4  1  0
  3  5  1  0
  5  6  2  0
  6  7  1  0
  3  8  2  0
  7  9  1  0
  9 10  1  0
 10 11  1  0
  4 12  1  0
  7 13  2  0
  8 13  1  0
  4 14  2  0
  8 14  1  0
M  END
$$$$

     RDKit          3D

 14 15  0  0  0  0  0  0  0  0999 V2000
  138.7092  151.1474  142.6270 C   0  0  0  0  0  0  0  0  0  0  0  0
  138.5252  151.9373  143.5111 C   0  0  0  0  0  0  0  0  0  0  0  0
  137.3814  151.6573  144.3961 C   0  0  0  0  0  0  0  0  0  0  0  0
  139.7031  151.1128  141.6105 C   0  0  0  0  0  0  0  0  0  0  0  0
  136.7109  150.4281  144.0240 C   0  0  0  0  0  0  0  0  0  0  0  0
  137.9078  150.0157  142.3135 C   0  0  0  0  0  0  0  0  0  0  0  0
  136.8888  149.6171  143.0677 C   0  0  0  0  0  0  0  0  0  0  0  0
  137.0551  152.5116  145.4729 C   0  0  0  0  0  0  0  0  0  0  0  0
  139.8733  150.6462  140.3139 C   0  0  0  0  0  0  0  0  0  0  0  0
  138.9802  149.6640  139.9166 C   0  0  0  0  0  0  0  0  0  0  0  0
  138.9077  149.1644  138.6464 C   0  0  0  0  0  0  0  0  0  0  0  0
  137.9319  149.3135  140.9503 C   0  0  0  0  0  0  0  0  0  0  0  0
  135.7253  152.5138  145.9771 C   0  0  0  0  0  0  0  0  0  0  0  0
  135.0196  151.5370  146.1614 C   0  0  0  0  0  0  0  0  0  0  0  0
  1  2  1  0
  2  3  2  0
  1  4  1  0
  3  5  1  0
  1  6  2  0
  5  7  2  0
  6  7  1  0
  3  8  1  0
  4  9  2  0
  9 10  1  0
 10 11  1  0
  6 12  1  0
 10 12  2  0
  8 13  1  0
 13 14  1  0
M  END
$$$$

     RDKit          3D

 14 15  0  0  0  0  0  0  0  0999 V2000
  140.8778  150.5419  139.7337 Cl  0  0  0  0  0  0  0  0  0  0  0  0
  138.9614  150.5329  140.4448 C   0  0  0  0  0  0  0  0  0  0  0  0
  138.2154  149.5089  139.9489 C   0  0  0  0  0  0  0  0  0  0  0  0
  139.1215  151.1800  141.6231 C   0  0  0  0  0  0  0  0  0  0  0  0
  138.0837  150.9004  142.5999 C   0  0  0  0  0  0  0  0  0  0  0  0
  137.1000  149.9215  142.1731 C   0  0  0  0  0  0  0  0  0  0  0  0
  135.9904  149.8133  143.1128 C   0  0  0  0  0  0  0  0  0  0  0  0
  136.2020  150.8803  144.1689 C   0  0  0  0  0  0  0  0  0  0  0  0
  136.9981  149.3556  140.8690 C   0  0  0  0  0  0  0  0  0  0  0  0
  138.1133  151.3851  143.9344 C   0  0  0  0  0  0  0  0  0  0  0  0
  134.8513  151.0098  145.0628 C   0  0  0  0  0  0  0  0  0  0  0  0
  134.9743  152.2124  146.0568 C   0  0  0  0  0  0  0  0  0  0  0  0
  137.2914  151.1917  144.6712 N   0  0  0  0  0  0  0  0  0  0  0  0
  134.8904  153.3516  145.8780 C   0  0  0  0  0  0  0  0  0  0  0  0
  1  2  1  0
  2  3  2  0
  2  4  1  0
  4  5  2  0
  5  6  1  0
  6  7  1  0
  7  8  1  0
  3  9  1  0
  6  9  2  0
  5 10  1  0
  8 11  1  0
 11 12  1  0
  8 13  1  0
 10 13  1  0
 12 14  2  0
M  END
$$$$

     RDKit          3D

 14 15  0  0  0  0  0  0  0  0999 V2000
  140.3036  150.2147  139.4796 Cl  0  0  0  0  0  0  0  0  0  0  0  0
  138.6769  150.1876  140.5325 C   0  0  0  0  0  0  0  0  0  0  0  0
  137.6372  149.3844  140.0947 C   0  0  0  0  0  0  0  0  0  0  0  0
  138.7726  150.9306  141.6506 C   0  0  0  0  0  0  0  0  0  0  0  0
  137.6840  150.8870  142.5431 C   0  0  0  0  0  0  0  0  0  0  0  0
  136.5884  150.1098  142.1532 C   0  0  0  0  0  0  0  0  0  0  0  0
  137.6052  148.7876  138.8600 C   0  0  0  0  0  0  0  0  0  0  0  0
  137.7591  151.5386  144.0668 C   0  0  0  0  0  0  0  0  0  0  0  0
  135.4222  150.3657  143.1344 C   0  0  0  0  0  0  0  0  0  0  0  0
  135.6113  150.9796  144.3538 C   0  0  0  0  0  0  0  0  0  0  0  0
  139.1008  151.9570  144.2710 O   0  0  0  0  0  0  0  0  0  0  0  0
  136.4022  149.4627  140.8783 C   0  0  0  0  0  0  0  0  0  0  0  0
  134.4258  151.1184  145.2951 C   0  0  0  0  0  0  0  0  0  0  0  0
  136.8339  151.5388  144.9103 C   0  0  0  0  0  0  0  0  0  0  0  0
  1  2  1  0
  2  3  1  0
  2  4  2  0
  4  5  1  0
  5  6  2  0
  3  7  1  0
  5  8  1  0
  6  9  1  0
  9 10  2  0
  8 11  1  0
  3 12  2  0
  6 12  1  0
 10 13  1  0
  8 14  2  0
 10 14  1  0
M  END
$$$$

     RDKit          3D

 14 15  0  0  0  0  0  0  0  0999 V2000
  139.5547  150.5070  140.4456 C   0  0  0  0  0  0  0  0  0  0  0  0
  139.2168  150.0153  139.3732 C   0  0  0  0  0  0  0  0  0  0  0  0
  138.8576  150.3067  141.5853 C   0  0  0  0  0  0  0  0  0  0  0  0
  137.9795  149.2997  139.2377 C   0  0  0  0  0  0  0  0  0  0  0  0
  139.3339  150.9307  142.8848 C   0  0  0  0  0  0  0  0  0  0  0  0
  138.3147  151.4954  143.6107 C   0  0  0  0  0  0  0  0  0  0  0  0
  137.0055  151.1295  143.2688 C   0  0  0  0  0  0  0  0  0  0  0  0
  137.4982  149.8915  141.4959 C   0  0  0  0  0  0  0  0  0  0  0  0
  135.9455  151.6889  144.0869 C   0  0  0  0  0  0  0  0  0  0  0  0
  137.4569  148.8329  138.0637 C   0  0  0  0  0  0  0  0  0  0  0  0
  137.0963  149.3993  140.4008 C   0  0  0  0  0  0  0  0  0  0  0  0
  136.1314  152.1346  145.3554 C   0  0  0  0  0  0  0  0  0  0  0  0
  136.6616  150.0286  142.3656 N   0  0  0  0  0  0  0  0  0  0  0  0
  135.0645  152.8782  146.0251 C   0  0  0  0  0  0  0  0  0  0  0  0
  1  2  2  0
  1  3  1  0
  2  4  1  0
  3  5  1  0
  5  6  2  0
  6  7  1  0
  3  8  2  0
  7  9  1  0
  4 10  1  0
  4 11  2  0
  8 11  1  0
  9 12  1  0
  7 13  2  0
  8 13  1  0
 12 14  1  0
M  END
$$$$

     RDKit          3D

 14 15  0  0  0  0  0  0  0  0999 V2000
  138.7247  151.5764  143.3183 C   0  0  0  0  0  0  0  0  0  0  0  0
  137.9184  152.3259  143.7535 C   0  0  0  0  0  0  0  0  0  0  0  0
  136.7531  151.7836  144.4567 C   0  0  0  0  0  0  0  0  0  0  0  0
  136.8362  150.4414  144.7132 C   0  0  0  0  0  0  0  0  0  0  0  0
  138.7265  150.3748  143.0129 C   0  0  0  0  0  0  0  0  0  0  0  0
  135.9827  149.8124  145.6763 C   0  0  0  0  0  0  0  0  0  0  0  0
  139.5974  149.5764  142.2297 C   0  0  0  0  0  0  0  0  0  0  0  0
  139.7449  150.2202  140.9097 C   0  0  0  0  0  0  0  0  0  0  0  0
  137.6203  149.8779  143.7755 N   0  0  0  0  0  0  0  0  0  0  0  0
  140.1459  149.4735  139.7706 C   0  0  0  0  0  0  0  0  0  0  0  0
  135.5553  152.4599  145.1778 C   0  0  0  0  0  0  0  0  0  0  0  0
  134.8119  151.8676  146.0096 C   0  0  0  0  0  0  0  0  0  0  0  0
  140.5883  150.2933  138.6936 C   0  0  0  0  0  0  0  0  0  0  0  0
  135.0099  150.6784  146.4440 C   0  0  0  0  0  0  0  0  0  0  0  0
  1  2  1  0
  2  3  2  0
  3  4  1  0
  1  5  2  0
  4  6  1  0
  5  7  1  0
  7  8  1  0
  4  9  2  0
  5  9  1  0
  8 10  1  0
  3 11  1  0
 11 12  2  0
 10 13  1  0
  6 14  2  0
 12 14  1  0
M  END
$$$$

     RDKit          3D

 14 15  0  0  0  0  0  0  0  0999 V2000
  140.8778  150.5419  139.7337 Cl  0  0  0  0  0  0  0  0  0  0  0  0
  138.9614  150.5329  140.4448 C   0  0  0  0  0  0  0  0  0  0  0  0
  138.2154  149.5089  139.9489 C   0  0  0  0  0  0  0  0  0  0  0  0
  139.1215  151.1800  141.6231 C   0  0  0  0  0  0  0  0  0  0  0  0
  138.4409  150.9839  142.4827 C   0  0  0  0  0  0  0  0  0  0  0  0
  137.3041  149.9252  142.2693 C   0  0  0  0  0  0  0  0  0  0  0  0
  136.3910  149.8005  143.3483 C   0  0  0  0  0  0  0  0  0  0  0  0
  136.8248  150.0544  144.6651 C   0  0  0  0  0  0  0  0  0  0  0  0
  136.9683  151.5255  144.8360 C   0  0  0  0  0  0  0  0  0  0  0  0
  138.0898  149.0605  138.7160 C   0  0  0  0  0  0  0  0  0  0  0  0
  136.9819  149.3842  141.0094 C   0  0  0  0  0  0  0  0  0  0  0  0
  136.2592  152.3635  145.5039 C   0  0  0  0  0  0  0  0  0  0  0  0
  138.1145  151.8137  144.0872 C   0  0  0  0  0  0  0  0  0  0  0  0
  134.9679  152.0188  145.9709 C   0  0  0  0  0  0  0  0  0  0  0  0
  1  2  1  0
  2  3  2  0
  2  4  1  0
  4  5  2  0
  5  6  1  0
  6  7  1  0
  7  8  1  0
  8  9  1  0
  3 10  1  0
  3 11  1  0
  6 11  2  0
  9 12  2  3
  5 13  1  0
  9 13  1  0
 12 14  1  0
M  END
$$$$

     RDKit          3D

 14 15  0  0  0  0  0  0  0  0999 V2000
  139.5547  150.5070  140.4456 C   0  0  0  0  0  0  0  0  0  0  0  0
  139.2168  150.0153  139.3732 C   0  0  0  0  0  0  0  0  0  0  0  0
  138.8576  150.3067  141.5853 C   0  0  0  0  0  0  0  0  0  0  0  0
  137.9795  149.2997  139.2377 C   0  0  0  0  0  0  0  0  0  0  0  0
  139.3339  150.9307  142.8848 C   0  0  0  0  0  0  0  0  0  0  0  0
  138.3147  151.4954  143.6107 C   0  0  0  0  0  0  0  0  0  0  0  0
  137.0055  151.1295  143.2688 C   0  0  0  0  0  0  0  0  0  0  0  0
  137.4982  149.8915  141.4959 C   0  0  0  0  0  0  0  0  0  0  0  0
  135.9455  151.6889  144.0869 C   0  0  0  0  0  0  0  0  0  0  0  0
  137.4569  148.8329  138.0637 C   0  0  0  0  0  0  0  0  0  0  0  0
  135.6006  151.4486  145.2992 C   0  0  0  0  0  0  0  0  0  0  0  0
  137.0817  149.4069  140.3935 C   0  0  0  0  0  0  0  0  0  0  0  0
  134.8705  152.3504  146.1555 C   0  0  0  0  0  0  0  0  0  0  0  0
  136.6824  150.2302  142.3309 N   0  0  0  0  0  0  0  0  0  0  0  0
  1  2  2  0
  1  3  1  0
  2  4  1  0
  3  5  1  0
  5  6  2  0
  6  7  1  0
  3  8  2  0
  7  9  1  0
  4 10  1  0
  9 11  2  3
  4 12  2  0
  8 12  1  0
 11 13  1  0
  7 14  2  0
  8 14  1  0
M  END
$$$$

     RDKit          3D

 14 15  0  0  0  0  0  0  0  0999 V2000
  140.3036  150.2147  139.4796 Cl  0  0  0  0  0  0  0  0  0  0  0  0
  138.6769  150.1876  140.5325 C   0  0  0  0  0  0  0  0  0  0  0  0
  137.6372  149.3844  140.0947 C   0  0  0  0  0  0  0  0  0  0  0  0
  138.7726  150.9306  141.6506 C   0  0  0  0  0  0  0  0  0  0  0  0
  137.6840  150.8870  142.5431 C   0  0  0  0  0  0  0  0  0  0  0  0
  136.5884  150.1098  142.1532 C   0  0  0  0  0  0  0  0  0  0  0  0
  137.6052  148.7876  138.8600 C   0  0  0  0  0  0  0  0  0  0  0  0
  137.7623  151.6047  143.8687 C   0  0  0  0  0  0  0  0  0  0  0  0
  135.4489  150.3378  143.1346 C   0  0  0  0  0  0  0  0  0  0  0  0
  136.6716  151.5959  144.6651 C   0  0  0  0  0  0  0  0  0  0  0  0
  136.4252  149.5116  140.9703 C   0  0  0  0  0  0  0  0  0  0  0  0
  136.8338  152.3609  145.9569 C   0  0  0  0  0  0  0  0  0  0  0  0
  135.6127  152.9387  146.4736 C   0  0  0  0  0  0  0  0  0  0  0  0
  135.7097  151.0988  144.3555 C   0  0  0  0  0  0  0  0  0  0  0  0
  1  2  1  0
  2  3  1  0
  2  4  2  0
  4  5  1  0
  5  6  2  0
  3  7  1  0
  5  8  1  0
  6  9  1  0
  8 10  2  0
  3 11  2  0
  6 11  1  0
 10 12  1  0
 12 13  1  0
  9 14  1  0
 10 14  1  0
M  END
$$$$

     RDKit          3D

 14 15  0  0  0  0  0  0  0  0999 V2000
  139.5547  150.5070  140.4456 C   0  0  0  0  0  0  0  0  0  0  0  0
  139.2168  150.0153  139.3732 C   0  0  0  0  0  0  0  0  0  0  0  0
  138.8576  150.3067  141.5853 C   0  0  0  0  0  0  0  0  0  0  0  0
  137.9795  149.2997  139.2377 C   0  0  0  0  0  0  0  0  0  0  0  0
  139.3339  150.9307  142.8848 C   0  0  0  0  0  0  0  0  0  0  0  0
  138.3147  151.4954  143.6107 C   0  0  0  0  0  0  0  0  0  0  0  0
  137.0055  151.1295  143.2688 C   0  0  0  0  0  0  0  0  0  0  0  0
  137.4982  149.8915  141.4959 C   0  0  0  0  0  0  0  0  0  0  0  0
  135.9455  151.6889  144.0869 C   0  0  0  0  0  0  0  0  0  0  0  0
  137.4569  148.8329  138.0637 C   0  0  0  0  0  0  0  0  0  0  0  0
  136.6325  150.2670  142.2227 C   0  0  0  0  0  0  0  0  0  0  0  0
  137.0847  149.1368  140.3556 N   0  0  0  0  0  0  0  0  0  0  0  0
  136.0858  152.1375  145.1850 N   0  0  0  0  0  0  0  0  0  0  0  0
  135.3575  152.8980  145.6046 C   0  0  0  0  0  0  0  0  0  0  0  0
  1  2  2  0
  1  3  1  0
  2  4  1  0
  3  5  1  0
  5  6  2  0
  6  7  1  0
  3  8  2  0
  7  9  1  0
  4 10  1  0
  7 11  2  0
  8 11  1  0
  4 12  2  0
  8 12  1  0
  9 13  2  3
 13 14  1  0
M  END
$$$$

     RDKit          3D

 14 15  0  0  0  0  0  0  0  0999 V2000
  138.9699  151.3138  142.5680 C   0  0  0  0  0  0  0  0  0  0  0  0
  138.6028  152.0884  143.2652 C   0  0  0  0  0  0  0  0  0  0  0  0
  137.6691  151.8112  144.0575 C   0  0  0  0  0  0  0  0  0  0  0  0
  136.5758  152.7066  144.5957 C   0  0  0  0  0  0  0  0  0  0  0  0
  139.8386  151.3584  141.3360 C   0  0  0  0  0  0  0  0  0  0  0  0
  139.5471  150.6838  140.2459 C   0  0  0  0  0  0  0  0  0  0  0  0
  135.4857  152.3771  145.3632 C   0  0  0  0  0  0  0  0  0  0  0  0
  138.3934  149.9290  140.2900 C   0  0  0  0  0  0  0  0  0  0  0  0
  135.5440  150.9337  145.7078 C   0  0  0  0  0  0  0  0  0  0  0  0
  137.2401  150.3968  144.5252 C   0  0  0  0  0  0  0  0  0  0  0  0
  138.3405  150.0159  142.2674 C   0  0  0  0  0  0  0  0  0  0  0  0
  134.4761  150.6184  146.6792 C   0  0  0  0  0  0  0  0  0  0  0  0
  136.2477  150.0226  145.3048 C   0  0  0  0  0  0  0  0  0  0  0  0
  137.9107  149.4666  141.4213 C   0  0  0  0  0  0  0  0  0  0  0  0
  1  2  2  3
  2  3  1  0
  3  4  1  0
  1  5  1  0
  5  6  2  0
  4  7  2  0
  6  8  1  0
  7  9  1  0
  3 10  2  0
  1 11  1  0
  9 12  1  0
  9 13  2  0
 10 13  1  0
  8 14  1  0
 11 14  1  0
M  END
$$$$

     RDKit          3D

 14 15  0  0  0  0  0  0  0  0999 V2000
  140.8778  150.5419  139.7337 Cl  0  0  0  0  0  0  0  0  0  0  0  0
  138.9614  150.5329  140.4448 C   0  0  0  0  0  0  0  0  0  0  0  0
  138.2154  149.5089  139.9489 C   0  0  0  0  0  0  0  0  0  0  0  0
  139.1215  151.1800  141.6231 C   0  0  0  0  0  0  0  0  0  0  0  0
  138.0837  150.9004  142.5999 C   0  0  0  0  0  0  0  0  0  0  0  0
  137.1000  149.9215  142.1731 C   0  0  0  0  0  0  0  0  0  0  0  0
  135.9904  149.8133  143.1128 C   0  0  0  0  0  0  0  0  0  0  0  0
  136.2020  150.8803  144.1689 C   0  0  0  0  0  0  0  0  0  0  0  0
  138.1207  151.4578  143.7958 C   0  0  0  0  0  0  0  0  0  0  0  0
  134.9524  151.0616  145.0869 C   0  0  0  0  0  0  0  0  0  0  0  0
  137.0432  149.3849  140.8561 C   0  0  0  0  0  0  0  0  0  0  0  0
  135.1048  152.0419  146.1908 C   0  0  0  0  0  0  0  0  0  0  0  0
  137.2838  151.4361  144.5830 C   0  0  0  0  0  0  0  0  0  0  0  0
  134.2309  152.2116  147.0581 C   0  0  0  0  0  0  0  0  0  0  0  0
  1  2  1  0
  2  3  2  0
  2  4  1  0
  4  5  2  0
  5  6  1  0
  6  7  1  0
  7  8  1  0
  5  9  1  0
  8 10  2  3
  3 11  1  0
  6 11  2  0
 10 12  1  0
  8 13  1  0
  9 13  2  0
 12 14  2  0
M  END
$$$$

     RDKit          3D

 14 15  0  0  0  0  0  0  0  0999 V2000
  140.8778  150.5419  139.7337 Cl  0  0  0  0  0  0  0  0  0  0  0  0
  138.9614  150.5329  140.4448 C   0  0  0  0  0  0  0  0  0  0  0  0
  138.2154  149.5089  139.9489 C   0  0  0  0  0  0  0  0  0  0  0  0
  139.1215  151.1800  141.6231 C   0  0  0  0  0  0  0  0  0  0  0  0
  138.0837  150.9004  142.5999 C   0  0  0  0  0  0  0  0  0  0  0  0
  137.1000  149.9215  142.1731 C   0  0  0  0  0  0  0  0  0  0  0  0
  135.9904  149.8133  143.1128 C   0  0  0  0  0  0  0  0  0  0  0  0
  136.2020  150.8803  144.1689 C   0  0  0  0  0  0  0  0  0  0  0  0
  137.0013  149.3666  140.8539 C   0  0  0  0  0  0  0  0  0  0  0  0
  135.7607  151.0885  145.3687 C   0  0  0  0  0  0  0  0  0  0  0  0
  137.9131  151.4801  143.9167 C   0  0  0  0  0  0  0  0  0  0  0  0
  135.6344  152.1802  145.9343 C   0  0  0  0  0  0  0  0  0  0  0  0
  136.3302  153.3107  145.6544 O   0  0  0  0  0  0  0  0  0  0  0  0
  134.7340  152.5735  146.9735 C   0  0  0  0  0  0  0  0  0  0  0  0
  1  2  1  0
  2  3  2  0
  2  4  1  0
  4  5  2  0
  5  6  1  0
  6  7  1  0
  7  8  1  0
  3  9  1  0
  6  9  2  0
  8 10  1  0
  5 11  1  0
  8 11  1  0
 10 12  1  0
 12 13  2  0
 12 14  1  0
M  END
$$$$

     RDKit          3D

 14 15  0  0  0  0  0  0  0  0999 V2000
  138.7247  151.5764  143.3183 C   0  0  0  0  0  0  0  0  0  0  0  0
  137.9184  152.3259  143.7535 C   0  0  0  0  0  0  0  0  0  0  0  0
  136.7531  151.7836  144.4567 C   0  0  0  0  0  0  0  0  0  0  0  0
  136.8362  150.4414  144.7132 C   0  0  0  0  0  0  0  0  0  0  0  0
  138.7265  150.3748  143.0129 C   0  0  0  0  0  0  0  0  0  0  0  0
  135.9827  149.8124  145.6763 C   0  0  0  0  0  0  0  0  0  0  0  0
  139.5974  149.5764  142.2297 C   0  0  0  0  0  0  0  0  0  0  0  0
  139.7449  150.2202  140.9097 C   0  0  0  0  0  0  0  0  0  0  0  0
  140.1461  149.5005  139.7657 C   0  0  0  0  0  0  0  0  0  0  0  0
  135.9258  152.7276  145.1338 C   0  0  0  0  0  0  0  0  0  0  0  0
  140.6245  150.3654  138.7025 C   0  0  0  0  0  0  0  0  0  0  0  0
  137.6519  149.6980  143.9357 N   0  0  0  0  0  0  0  0  0  0  0  0
  134.6126  152.3082  145.7645 C   0  0  0  0  0  0  0  0  0  0  0  0
  134.8545  150.9374  146.3494 C   0  0  0  0  0  0  0  0  0  0  0  0
  1  2  1  0
  2  3  2  0
  3  4  1  0
  1  5  2  0
  4  6  1  0
  5  7  1  0
  7  8  1  0
  8  9  1  0
  3 10  1  0
  9 11  1  0
  4 12  2  0
  5 12  1  0
 10 13  1  0
  6 14  1  0
 13 14  1  0
M  END
$$$$

     RDKit          3D

 14 15  0  0  0  0  0  0  0  0999 V2000
  138.9699  151.3138  142.5680 C   0  0  0  0  0  0  0  0  0  0  0  0
  138.6028  152.0884  143.2652 C   0  0  0  0  0  0  0  0  0  0  0  0
  137.6691  151.8112  144.0575 C   0  0  0  0  0  0  0  0  0  0  0  0
  136.5758  152.7066  144.5957 C   0  0  0  0  0  0  0  0  0  0  0  0
  139.8386  151.3584  141.3360 C   0  0  0  0  0  0  0  0  0  0  0  0
  139.5471  150.6838  140.2459 C   0  0  0  0  0  0  0  0  0  0  0  0
  135.4857  152.3771  145.3632 C   0  0  0  0  0  0  0  0  0  0  0  0
  138.3934  149.9290  140.2900 C   0  0  0  0  0  0  0  0  0  0  0  0
  135.5440  150.9337  145.7078 C   0  0  0  0  0  0  0  0  0  0  0  0
  137.2401  150.3968  144.5252 C   0  0  0  0  0  0  0  0  0  0  0  0
  138.3405  150.0159  142.2674 C   0  0  0  0  0  0  0  0  0  0  0  0
  137.8855  149.4070  141.3690 C   0  0  0  0  0  0  0  0  0  0  0  0
  134.4521  150.6402  146.6940 C   0  0  0  0  0  0  0  0  0  0  0  0
  136.3881  150.0310  145.2206 C   0  0  0  0  0  0  0  0  0  0  0  0
  1  2  2  3
  2  3  1  0
  3  4  1  0
  1  5  1  0
  5  6  2  0
  4  7  2  0
  6  8  1  0
  7  9  1  0
  3 10  2  0
  1 11  1  0
  8 12  2  0
 11 12  1  0
  9 13  1  0
  9 14  2  0
 10 14  1  0
M  END
$$$$

     RDKit          3D

 14 15  0  0  0  0  0  0  0  0999 V2000
  140.3036  150.2147  139.4796 Cl  0  0  0  0  0  0  0  0  0  0  0  0
  138.6769  150.1876  140.5325 C   0  0  0  0  0  0  0  0  0  0  0  0
  137.6372  149.3844  140.0947 C   0  0  0  0  0  0  0  0  0  0  0  0
  138.7726  150.9306  141.6506 C   0  0  0  0  0  0  0  0  0  0  0  0
  137.6840  150.8870  142.5431 C   0  0  0  0  0  0  0  0  0  0  0  0
  136.5884  150.1098  142.1532 C   0  0  0  0  0  0  0  0  0  0  0  0
  137.6052  148.7876  138.8600 C   0  0  0  0  0  0  0  0  0  0  0  0
  137.7623  151.6047  143.8687 C   0  0  0  0  0  0  0  0  0  0  0  0
  135.4489  150.3378  143.1346 C   0  0  0  0  0  0  0  0  0  0  0  0
  136.6716  151.5959  144.6651 C   0  0  0  0  0  0  0  0  0  0  0  0
  136.4682  149.5499  140.9304 C   0  0  0  0  0  0  0  0  0  0  0  0
  136.8320  152.3600  145.9560 C   0  0  0  0  0  0  0  0  0  0  0  0
  135.6118  152.9405  146.4705 C   0  0  0  0  0  0  0  0  0  0  0  0
  135.6375  151.1353  144.3329 C   0  0  0  0  0  0  0  0  0  0  0  0
  1  2  1  0
  2  3  1  0
  2  4  2  0
  4  5  1  0
  5  6  2  0
  3  7  1  0
  5  8  1  0
  6  9  1  0
  8 10  2  0
  3 11  2  0
  6 11  1  0
 10 12  1  0
 12 13  2  0
  9 14  2  0
 10 14  1  0
M  END
$$$$

     RDKit          3D

 14 16  0  0  0  0  0  0  0  0999 V2000
  138.9699  151.3138  142.5680 C   0  0  0  0  0  0  0  0  0  0  0  0
  138.6028  152.0884  143.2652 C   0  0  0  0  0  0  0  0  0  0  0  0
  137.4868  151.7382  144.1979 C   0  0  0  0  0  0  0  0  0  0  0  0
  139.9964  151.3955  141.4280 C   0  0  0  0  0  0  0  0  0  0  0  0
  139.7128  150.7435  140.2231 C   0  0  0  0  0  0  0  0  0  0  0  0
  137.0980  150.3607  143.9160 C   0  0  0  0  0  0  0  0  0  0  0  0
  138.4640  149.8986  142.0939 C   0  0  0  0  0  0  0  0  0  0  0  0
  138.9093  149.6851  140.2985 C   0  0  0  0  0  0  0  0  0  0  0  0
  136.7346  152.3723  145.2066 C   0  0  0  0  0  0  0  0  0  0  0  0
  136.8762  153.6464  145.4225 C   0  0  0  0  0  0  0  0  0  0  0  0
  137.5573  149.2804  142.9510 N   0  0  0  0  0  0  0  0  0  0  0  0
  135.7104  151.7317  145.9116 C   0  0  0  0  0  0  0  0  0  0  0  0
  134.9708  152.5951  146.5000 C   0  0  0  0  0  0  0  0  0  0  0  0
  135.4900  153.7336  146.5070 C   0  0  0  0  0  0  0  0  0  0  0  0
  1  2  1  0
  2  3  2  0
  1  4  1  0
  4  5  2  0
  3  6  1  0
  1  7  2  0
  5  8  1  0
  7  8  1  0
  3  9  1  0
  9 10  1  0
  6 11  2  0
  7 11  1  0
  9 12  2  0
 12 13  1  0
 10 14  1  0
 13 14  1  0
M  END
$$$$

     RDKit          3D

 14 15  0  0  0  0  0  0  0  0999 V2000
  139.5547  150.5070  140.4456 C   0  0  0  0  0  0  0  0  0  0  0  0
  139.2168  150.0153  139.3732 C   0  0  0  0  0  0  0  0  0  0  0  0
  138.8576  150.3067  141.5853 C   0  0  0  0  0  0  0  0  0  0  0  0
  137.9795  149.2997  139.2377 C   0  0  0  0  0  0  0  0  0  0  0  0
  139.3339  150.9307  142.8848 C   0  0  0  0  0  0  0  0  0  0  0  0
  138.3147  151.4954  143.6107 C   0  0  0  0  0  0  0  0  0  0  0  0
  137.0055  151.1295  143.2688 C   0  0  0  0  0  0  0  0  0  0  0  0
  137.4982  149.8915  141.4959 C   0  0  0  0  0  0  0  0  0  0  0  0
  135.9455  151.6889  144.0869 C   0  0  0  0  0  0  0  0  0  0  0  0
  137.4569  148.8329  138.0637 C   0  0  0  0  0  0  0  0  0  0  0  0
  136.6325  150.2670  142.2227 C   0  0  0  0  0  0  0  0  0  0  0  0
  137.0106  149.0788  140.5390 N   0  0  0  0  0  0  0  0  0  0  0  0
  136.0891  152.1358  145.1862 N   0  0  0  0  0  0  0  0  0  0  0  0
  135.0744  152.7674  145.9394 C   0  0  0  0  0  0  0  0  0  0  0  0
  1  2  2  0
  1  3  1  0
  2  4  1  0
  3  5  1  0
  5  6  2  0
  6  7  1  0
  3  8  2  0
  7  9  1  0
  4 10  1  0
  7 11  2  0
  8 11  1  0
  4 12  2  0
  8 12  1  0
  9 13  1  0
 13 14  1  0
M  END
$$$$

     RDKit          3D

 14 15  0  0  0  0  0  0  0  0999 V2000
  138.9699  151.3138  142.5680 C   0  0  0  0  0  0  0  0  0  0  0  0
  138.6028  152.0884  143.2652 C   0  0  0  0  0  0  0  0  0  0  0  0
  137.6691  151.8112  144.0575 C   0  0  0  0  0  0  0  0  0  0  0  0
  136.5758  152.7066  144.5957 C   0  0  0  0  0  0  0  0  0  0  0  0
  139.8386  151.3584  141.3360 C   0  0  0  0  0  0  0  0  0  0  0  0
  135.4778  152.3761  145.3561 C   0  0  0  0  0  0  0  0  0  0  0  0
  135.5311  150.9302  145.6901 C   0  0  0  0  0  0  0  0  0  0  0  0
  137.2472  150.4901  144.6565 C   0  0  0  0  0  0  0  0  0  0  0  0
  138.3749  149.5781  144.2436 C   0  0  0  0  0  0  0  0  0  0  0  0
  139.6308  150.7649  140.3213 C   0  0  0  0  0  0  0  0  0  0  0  0
  140.4689  150.7140  139.1819 C   0  0  0  0  0  0  0  0  0  0  0  0
  139.0091  150.0050  143.0598 C   0  0  0  0  0  0  0  0  0  0  0  0
  134.4104  150.6466  146.6595 C   0  0  0  0  0  0  0  0  0  0  0  0
  136.5141  150.0537  145.2483 N   0  0  0  0  0  0  0  0  0  0  0  0
  1  2  2  0
  2  3  1  0
  3  4  1  0
  1  5  1  0
  4  6  2  0
  6  7  1  0
  3  8  2  0
  8  9  1  0
  5 10  2  3
 10 11  1  0
  1 12  1  0
  9 12  2  0
  7 13  1  0
  7 14  2  0
  8 14  1  0
M  END
$$$$

     RDKit          3D

 14 15  0  0  0  0  0  0  0  0999 V2000
  138.9699  151.3138  142.5680 C   0  0  0  0  0  0  0  0  0  0  0  0
  138.6028  152.0884  143.2652 C   0  0  0  0  0  0  0  0  0  0  0  0
  137.6691  151.8112  144.0575 C   0  0  0  0  0  0  0  0  0  0  0  0
  136.5758  152.7066  144.5957 C   0  0  0  0  0  0  0  0  0  0  0  0
  139.8386  151.3584  141.3360 C   0  0  0  0  0  0  0  0  0  0  0  0
  139.5471  150.6838  140.2459 C   0  0  0  0  0  0  0  0  0  0  0  0
  135.4857  152.3771  145.3632 C   0  0  0  0  0  0  0  0  0  0  0  0
  138.3934  149.9290  140.2900 C   0  0  0  0  0  0  0  0  0  0  0  0
  135.5440  150.9337  145.7078 C   0  0  0  0  0  0  0  0  0  0  0  0
  137.2401  150.3968  144.5252 C   0  0  0  0  0  0  0  0  0  0  0  0
  138.3405  150.0159  142.2674 C   0  0  0  0  0  0  0  0  0  0  0  0
  134.4761  150.6184  146.6792 C   0  0  0  0  0  0  0  0  0  0  0  0
  136.2477  150.0226  145.3048 C   0  0  0  0  0  0  0  0  0  0  0  0
  137.9244  149.4099  141.2762 C   0  0  0  0  0  0  0  0  0  0  0  0
  1  2  2  3
  2  3  1  0
  3  4  1  0
  1  5  1  0
  5  6  2  0
  4  7  2  0
  6  8  1  0
  7  9  1  0
  3 10  2  0
  1 11  1  0
  9 12  1  0
  9 13  2  0
 10 13  1  0
  8 14  2  0
 11 14  2  0
M  END
$$$$

     RDKit          3D

 14 15  0  0  0  0  0  0  0  0999 V2000
  140.8778  150.5419  139.7337 Cl  0  0  0  0  0  0  0  0  0  0  0  0
  138.9614  150.5329  140.4448 C   0  0  0  0  0  0  0  0  0  0  0  0
  138.2154  149.5089  139.9489 C   0  0  0  0  0  0  0  0  0  0  0  0
  139.1215  151.1800  141.6231 C   0  0  0  0  0  0  0  0  0  0  0  0
  138.4409  150.9839  142.4827 C   0  0  0  0  0  0  0  0  0  0  0  0
  137.3041  149.9252  142.2693 C   0  0  0  0  0  0  0  0  0  0  0  0
  136.3910  149.8005  143.3483 C   0  0  0  0  0  0  0  0  0  0  0  0
  136.8248  150.0544  144.6651 C   0  0  0  0  0  0  0  0  0  0  0  0
  137.1159  149.3927  140.9659 C   0  0  0  0  0  0  0  0  0  0  0  0
  136.7528  151.4306  144.9962 C   0  0  0  0  0  0  0  0  0  0  0  0
  137.5242  152.3020  144.4243 C   0  0  0  0  0  0  0  0  0  0  0  0
  138.4339  151.8315  143.7243 C   0  0  0  0  0  0  0  0  0  0  0  0
  135.8911  151.9874  146.0726 C   0  0  0  0  0  0  0  0  0  0  0  0
  135.3787  153.2215  145.9895 C   0  0  0  0  0  0  0  0  0  0  0  0
  1  2  1  0
  2  3  2  0
  2  4  1  0
  4  5  2  0
  5  6  1  0
  6  7  1  0
  7  8  1  0
  3  9  1  0
  6  9  2  0
  8 10  1  0
 10 11  1  0
  5 12  1  0
 11 12  1  0
 10 13  2  3
 13 14  1  0
M  END
$$$$

     RDKit          3D

 14 14  0  0  0  0  0  0  0  0999 V2000
  138.9699  151.3138  142.5680 C   0  0  0  0  0  0  0  0  0  0  0  0
  138.6028  152.0884  143.2652 C   0  0  0  0  0  0  0  0  0  0  0  0
  137.6691  151.8112  144.0575 C   0  0  0  0  0  0  0  0  0  0  0  0
  136.5758  152.7066  144.5957 C   0  0  0  0  0  0  0  0  0  0  0  0
  135.5865  152.4520  145.5239 C   0  0  0  0  0  0  0  0  0  0  0  0
  139.9119  151.4259  141.3573 C   0  0  0  0  0  0  0  0  0  0  0  0
  135.6786  150.9924  145.8717 C   0  0  0  0  0  0  0  0  0  0  0  0
  137.2821  150.4143  144.6542 C   0  0  0  0  0  0  0  0  0  0  0  0
  138.3181  149.5410  144.1306 O   0  0  0  0  0  0  0  0  0  0  0  0
  139.7259  150.5519  140.2474 C   0  0  0  0  0  0  0  0  0  0  0  0
  138.5869  149.8231  140.2429 C   0  0  0  0  0  0  0  0  0  0  0  0
  134.6606  150.7198  147.0024 C   0  0  0  0  0  0  0  0  0  0  0  0
  136.3791  149.9420  145.5320 C   0  0  0  0  0  0  0  0  0  0  0  0
  138.2171  149.2388  138.9918 C   0  0  0  0  0  0  0  0  0  0  0  0
  1  2  2  3
  2  3  1  0
  3  4  1  0
  4  5  2  0
  1  6  1  0
  5  7  1  0
  3  8  2  0
  8  9  1  0
  6 10  2  3
 10 11  1  0
  7 12  1  0
  7 13  2  0
  8 13  1  0
 11 14  1  0
M  END
$$$$

     RDKit          3D

 14 14  0  0  0  0  0  0  0  0999 V2000
  138.7247  151.5764  143.3183 C   0  0  0  0  0  0  0  0  0  0  0  0
  137.9184  152.3259  143.7535 C   0  0  0  0  0  0  0  0  0  0  0  0
  136.7531  151.7836  144.4567 C   0  0  0  0  0  0  0  0  0  0  0  0
  136.8362  150.4414  144.7132 C   0  0  0  0  0  0  0  0  0  0  0  0
  138.7265  150.3748  143.0129 C   0  0  0  0  0  0  0  0  0  0  0  0
  139.6213  149.6149  142.1899 C   0  0  0  0  0  0  0  0  0  0  0  0
  137.7198  149.6394  143.8762 C   0  0  0  0  0  0  0  0  0  0  0  0
  135.7877  152.5653  145.1966 C   0  0  0  0  0  0  0  0  0  0  0  0
  135.8578  153.9589  145.3460 C   0  0  0  0  0  0  0  0  0  0  0  0
  139.4800  149.9991  140.7663 C   0  0  0  0  0  0  0  0  0  0  0  0
  140.3208  149.4798  139.7529 C   0  0  0  0  0  0  0  0  0  0  0  0
  140.1319  150.0477  138.3768 C   0  0  0  0  0  0  0  0  0  0  0  0
  134.9621  151.9743  145.9747 C   0  0  0  0  0  0  0  0  0  0  0  0
  133.8739  152.5847  146.4230 C   0  0  0  0  0  0  0  0  0  0  0  0
  1  2  1  0
  2  3  2  0
  3  4  1  0
  1  5  2  0
  5  6  1  0
  4  7  2  0
  5  7  1  0
  3  8  1  0
  8  9  1  0
  6 10  1  0
 10 11  1  0
 11 12  1  0
  8 13  2  3
 13 14  1  0
M  END
$$$$

     RDKit          3D

 14 15  0  0  0  0  0  0  0  0999 V2000
  138.9699  151.3138  142.5680 C   0  0  0  0  0  0  0  0  0  0  0  0
  138.6028  152.0884  143.2652 C   0  0  0  0  0  0  0  0  0  0  0  0
  137.6691  151.8112  144.0575 C   0  0  0  0  0  0  0  0  0  0  0  0
  136.5758  152.7066  144.5957 C   0  0  0  0  0  0  0  0  0  0  0  0
  139.8386  151.3584  141.3360 C   0  0  0  0  0  0  0  0  0  0  0  0
  139.5471  150.6838  140.2459 C   0  0  0  0  0  0  0  0  0  0  0  0
  135.4857  152.3771  145.3632 C   0  0  0  0  0  0  0  0  0  0  0  0
  138.3934  149.9290  140.2900 C   0  0  0  0  0  0  0  0  0  0  0  0
  135.5440  150.9337  145.7078 C   0  0  0  0  0  0  0  0  0  0  0  0
  137.2401  150.3968  144.5252 C   0  0  0  0  0  0  0  0  0  0  0  0
  138.3405  150.0159  142.2674 C   0  0  0  0  0  0  0  0  0  0  0  0
  134.4761  150.6184  146.6792 C   0  0  0  0  0  0  0  0  0  0  0  0
  136.3950  150.0545  145.2205 C   0  0  0  0  0  0  0  0  0  0  0  0
  137.9156  149.4638  141.4212 N   0  0  0  0  0  0  0  0  0  0  0  0
  1  2  2  3
  2  3  1  0
  3  4  1  0
  1  5  1  0
  5  6  2  0
  4  7  2  0
  6  8  1  0
  7  9  1  0
  3 10  2  0
  1 11  1  0
  9 12  1  0
  9 13  2  0
 10 13  1  0
  8 14  2  0
 11 14  1  0
M  END
$$$$

     RDKit          3D

 14 15  0  0  0  0  0  0  0  0999 V2000
  140.8778  150.5419  139.7337 Cl  0  0  0  0  0  0  0  0  0  0  0  0
  138.9614  150.5329  140.4448 C   0  0  0  0  0  0  0  0  0  0  0  0
  138.2154  149.5089  139.9489 C   0  0  0  0  0  0  0  0  0  0  0  0
  139.1215  151.1800  141.6231 C   0  0  0  0  0  0  0  0  0  0  0  0
  138.0837  150.9004  142.5999 C   0  0  0  0  0  0  0  0  0  0  0  0
  137.1000  149.9215  142.1731 C   0  0  0  0  0  0  0  0  0  0  0  0
  135.9904  149.8133  143.1128 C   0  0  0  0  0  0  0  0  0  0  0  0
  136.2020  150.8803  144.1689 C   0  0  0  0  0  0  0  0  0  0  0  0
  136.9981  149.3556  140.8690 C   0  0  0  0  0  0  0  0  0  0  0  0
  135.7527  151.0925  145.3671 C   0  0  0  0  0  0  0  0  0  0  0  0
  135.6215  152.2838  146.0127 C   0  0  0  0  0  0  0  0  0  0  0  0
  135.1885  152.5672  147.1706 C   0  0  0  0  0  0  0  0  0  0  0  0
  135.8370  153.3778  145.1143 C   0  0  0  0  0  0  0  0  0  0  0  0
  137.6232  151.5400  143.8456 C   0  0  0  0  0  0  0  0  0  0  0  0
  1  2  1  0
  2  3  2  0
  2  4  1  0
  4  5  2  0
  5  6  1  0
  6  7  1  0
  7  8  1  0
  3  9  1  0
  6  9  2  0
  8 10  2  3
 10 11  1  0
 11 12  1  0
 11 13  2  0
  5 14  1  0
  8 14  1  0
M  END
$$$$

     RDKit          3D

 14 16  0  0  0  0  0  0  0  0999 V2000
  140.8778  150.5419  139.7337 Cl  0  0  0  0  0  0  0  0  0  0  0  0
  138.9614  150.5329  140.4448 C   0  0  0  0  0  0  0  0  0  0  0  0
  138.2154  149.5089  139.9489 C   0  0  0  0  0  0  0  0  0  0  0  0
  139.1215  151.1800  141.6231 C   0  0  0  0  0  0  0  0  0  0  0  0
  138.0837  150.9004  142.5999 C   0  0  0  0  0  0  0  0  0  0  0  0
  137.1000  149.9215  142.1731 C   0  0  0  0  0  0  0  0  0  0  0  0
  135.9904  149.8133  143.1128 C   0  0  0  0  0  0  0  0  0  0  0  0
  136.2020  150.8803  144.1689 C   0  0  0  0  0  0  0  0  0  0  0  0
  137.4491  151.3365  144.2920 C   0  0  0  0  0  0  0  0  0  0  0  0
  136.9723  149.4378  140.7211 C   0  0  0  0  0  0  0  0  0  0  0  0
  135.9194  150.9617  145.6569 C   0  0  0  0  0  0  0  0  0  0  0  0
  135.3525  152.2702  146.1765 C   0  0  0  0  0  0  0  0  0  0  0  0
  135.3107  152.7682  147.2532 C   0  0  0  0  0  0  0  0  0  0  0  0
  135.2717  152.3923  144.8832 C   0  0  0  0  0  0  0  0  0  0  0  0
  1  2  1  0
  2  3  2  0
  2  4  1  0
  4  5  2  0
  5  6  1  0
  6  7  1  0
  7  8  1  0
  5  9  1  0
  8  9  1  0
  3 10  1  0
  6 10  2  0
  8 11  1  0
 11 12  1  0
 12 13  1  0
  8 14  1  0
 12 14  1  0
M  END
$$$$

     RDKit          3D

 14 15  0  0  0  0  0  0  0  0999 V2000
  140.3036  150.2147  139.4796 Cl  0  0  0  0  0  0  0  0  0  0  0  0
  138.6769  150.1876  140.5325 C   0  0  0  0  0  0  0  0  0  0  0  0
  137.6372  149.3844  140.0947 C   0  0  0  0  0  0  0  0  0  0  0  0
  138.7726  150.9306  141.6506 C   0  0  0  0  0  0  0  0  0  0  0  0
  137.6840  150.8870  142.5431 C   0  0  0  0  0  0  0  0  0  0  0  0
  136.5884  150.1098  142.1532 C   0  0  0  0  0  0  0  0  0  0  0  0
  137.6052  148.7876  138.8600 C   0  0  0  0  0  0  0  0  0  0  0  0
  137.7623  151.6047  143.8687 C   0  0  0  0  0  0  0  0  0  0  0  0
  135.4489  150.3378  143.1346 C   0  0  0  0  0  0  0  0  0  0  0  0
  135.6410  151.0220  144.3224 C   0  0  0  0  0  0  0  0  0  0  0  0
  134.4601  151.1563  145.2718 C   0  0  0  0  0  0  0  0  0  0  0  0
  136.4633  149.7067  140.8550 C   0  0  0  0  0  0  0  0  0  0  0  0
  136.8184  151.6329  144.7981 C   0  0  0  0  0  0  0  0  0  0  0  0
  137.1141  152.2340  145.9578 C   0  0  0  0  0  0  0  0  0  0  0  0
  1  2  1  0
  2  3  1  0
  2  4  2  0
  4  5  1  0
  5  6  2  0
  3  7  1  0
  5  8  1  0
  6  9  1  0
  9 10  2  0
 10 11  1  0
  3 12  2  0
  6 12  1  0
  8 13  1  0
 10 13  1  0
 13 14  2  0
M  END
$$$$
