
     RDKit          3D

  9  9  0  0  0  0  0  0  0  0999 V2000
  140.3036  150.2148  139.4783 Cl  0  0  0  0  0  0  0  0  0  0  0  0
  138.6783  150.1860  140.5319 C   0  0  0  0  0  0  0  0  0  0  0  0
  137.6385  149.3831  140.0945 C   0  0  0  0  0  0  0  0  0  0  0  0
  139.2417  150.7158  141.5756 C   0  0  0  0  0  0  0  0  0  0  0  0
  138.3592  151.0505  142.3777 C   0  0  0  0  0  0  0  0  0  0  0  0
  137.5069  148.8230  138.8349 C   0  0  0  0  0  0  0  0  0  0  0  0
  136.9965  150.6094  142.5121 C   0  0  0  0  0  0  0  0  0  0  0  0
  138.6031  151.9300  143.8032 C   0  0  0  0  0  0  0  0  0  0  0  0
  136.4343  149.9268  141.3095 C   0  0  0  0  0  0  0  0  0  0  0  0
  1  2  1  0
  2  3  1  0
  2  4  2  0
  4  5  1  0
  3  6  1  0
  5  7  2  0
  5  8  1  0
  3  9  2  0
  7  9  1  0
M  END
$$$$

     RDKit          3D

  9  9  0  0  0  0  0  0  0  0999 V2000
  139.3427  149.9935  140.5880 C   0  0  0  0  0  0  0  0  0  0  0  0
  138.9528  149.9224  139.3656 C   0  0  0  0  0  0  0  0  0  0  0  0
  138.6122  150.1102  141.6416 C   0  0  0  0  0  0  0  0  0  0  0  0
  137.1910  149.8704  141.8331 C   0  0  0  0  0  0  0  0  0  0  0  0
  136.5134  149.7658  140.5812 C   0  0  0  0  0  0  0  0  0  0  0  0
  139.1788  150.4012  143.1353 C   0  0  0  0  0  0  0  0  0  0  0  0
  135.0842  149.7147  140.3850 C   0  0  0  0  0  0  0  0  0  0  0  0
  137.4758  149.7072  139.1240 C   0  0  0  0  0  0  0  0  0  0  0  0
  138.3766  151.2372  143.8708 C   0  0  0  0  0  0  0  0  0  0  0  0
  1  2  2  0
  1  3  1  0
  3  4  1  0
  4  5  2  0
  3  6  1  0
  5  7  1  0
  2  8  1  0
  5  8  1  0
  6  9  1  0
M  END
$$$$

     RDKit          3D

  9  9  0  0  0  0  0  0  0  0999 V2000
  140.3036  150.2148  139.4783 Cl  0  0  0  0  0  0  0  0  0  0  0  0
  138.6783  150.1860  140.5319 C   0  0  0  0  0  0  0  0  0  0  0  0
  137.6385  149.3831  140.0945 C   0  0  0  0  0  0  0  0  0  0  0  0
  138.7505  150.9487  141.6715 C   0  0  0  0  0  0  0  0  0  0  0  0
  137.7560  150.8742  142.6261 C   0  0  0  0  0  0  0  0  0  0  0  0
  136.6347  150.0387  142.2615 C   0  0  0  0  0  0  0  0  0  0  0  0
  137.5260  148.8217  138.8936 C   0  0  0  0  0  0  0  0  0  0  0  0
  136.3972  149.4966  141.0089 C   0  0  0  0  0  0  0  0  0  0  0  0
  137.8600  151.5623  144.0629 Cl  0  0  0  0  0  0  0  0  0  0  0  0
  1  2  1  0
  2  3  2  0
  2  4  1  0
  4  5  2  0
  5  6  1  0
  3  7  1  0
  3  8  1  0
  6  8  2  0
  5  9  1  0
M  END
$$$$

     RDKit          3D

  9  9  0  0  0  0  0  0  0  0999 V2000
  139.5348  150.8906  142.2305 C   0  0  0  0  0  0  0  0  0  0  0  0
  139.0139  150.3976  141.0574 C   0  0  0  0  0  0  0  0  0  0  0  0
  138.6965  150.9489  143.4028 C   0  0  0  0  0  0  0  0  0  0  0  0
  137.7130  149.9460  141.0427 C   0  0  0  0  0  0  0  0  0  0  0  0
  137.5183  150.9374  143.4785 C   0  0  0  0  0  0  0  0  0  0  0  0
  137.0105  149.4597  139.8756 C   0  0  0  0  0  0  0  0  0  0  0  0
  136.7139  151.1270  144.7008 C   0  0  0  0  0  0  0  0  0  0  0  0
  136.7946  150.3863  142.2644 C   0  0  0  0  0  0  0  0  0  0  0  0
  139.8079  150.2705  139.9273 C   0  0  0  0  0  0  0  0  0  0  0  0
  1  2  2  0
  1  3  1  0
  2  4  1  0
  3  5  2  0
  4  6  1  0
  5  7  1  0
  4  8  2  0
  5  8  1  0
  2  9  1  0
M  END
$$$$

     RDKit          3D

  9  9  0  0  0  0  0  0  0  0999 V2000
  138.7236  151.5756  143.3190 C   0  0  0  0  0  0  0  0  0  0  0  0
  137.9189  152.3262  143.7538 C   0  0  0  0  0  0  0  0  0  0  0  0
  136.7533  151.7852  144.4573 C   0  0  0  0  0  0  0  0  0  0  0  0
  136.8351  150.4435  144.7144 C   0  0  0  0  0  0  0  0  0  0  0  0
  138.6416  150.0975  143.3873 C   0  0  0  0  0  0  0  0  0  0  0  0
  135.5494  152.3437  145.0636 C   0  0  0  0  0  0  0  0  0  0  0  0
  137.7368  149.5052  144.2117 C   0  0  0  0  0  0  0  0  0  0  0  0
  134.8002  152.0377  145.8217 C   0  0  0  0  0  0  0  0  0  0  0  0
  135.4236  153.7268  144.5339 O   0  0  0  0  0  0  0  0  0  0  0  0
  1  2  1  0
  2  3  2  0
  3  4  1  0
  1  5  2  0
  3  6  1  0
  4  7  2  0
  5  7  1  0
  6  8  1  0
  6  9  2  0
M  END
$$$$

     RDKit          3D

  9  9  0  0  0  0  0  0  0  0999 V2000
  139.0004  149.7631  140.3649 C   0  0  0  0  0  0  0  0  0  0  0  0
  138.7142  149.5451  139.1249 C   0  0  0  0  0  0  0  0  0  0  0  0
  138.1856  150.1072  141.2839 C   0  0  0  0  0  0  0  0  0  0  0  0
  137.3213  149.5926  138.6821 C   0  0  0  0  0  0  0  0  0  0  0  0
  136.9821  149.1480  137.4604 O   0  0  0  0  0  0  0  0  0  0  0  0
  136.3925  149.6121  139.4099 C   0  0  0  0  0  0  0  0  0  0  0  0
  135.0509  149.6478  139.3373 O   0  0  0  0  0  0  0  0  0  0  0  0
  138.6217  150.4955  142.6381 C   0  0  0  0  0  0  0  0  0  0  0  0
  136.7158  150.0008  140.9954 C   0  0  0  0  0  0  0  0  0  0  0  0
  1  2  2  0
  1  3  1  0
  2  4  1  0
  4  5  1  0
  4  6  2  0
  6  7  1  0
  3  8  1  0
  3  9  2  0
  6  9  1  0
M  END
$$$$

     RDKit          3D

  9  9  0  0  0  0  0  0  0  0999 V2000
  139.2621  151.0929  142.4047 C   0  0  0  0  0  0  0  0  0  0  0  0
  138.8616  152.1308  142.9039 C   0  0  0  0  0  0  0  0  0  0  0  0
  137.9118  151.7982  143.7822 C   0  0  0  0  0  0  0  0  0  0  0  0
  138.8285  150.4008  141.6024 C   0  0  0  0  0  0  0  0  0  0  0  0
  137.6662  149.9534  141.7610 C   0  0  0  0  0  0  0  0  0  0  0  0
  136.7054  150.4876  142.6446 C   0  0  0  0  0  0  0  0  0  0  0  0
  136.8348  151.3341  143.7043 C   0  0  0  0  0  0  0  0  0  0  0  0
  135.7411  151.5093  144.5797 C   0  0  0  0  0  0  0  0  0  0  0  0
  135.8765  152.2556  145.5685 O   0  0  0  0  0  0  0  0  0  0  0  0
  1  2  1  0
  2  3  2  0
  1  4  2  0
  4  5  1  0
  5  6  2  0
  3  7  1  0
  6  7  1  0
  7  8  1  0
  8  9  1  0
M  END
$$$$

     RDKit          3D

  9  9  0  0  0  0  0  0  0  0999 V2000
  138.7236  151.5756  143.3190 C   0  0  0  0  0  0  0  0  0  0  0  0
  137.9189  152.3262  143.7538 C   0  0  0  0  0  0  0  0  0  0  0  0
  136.7533  151.7852  144.4573 C   0  0  0  0  0  0  0  0  0  0  0  0
  136.8351  150.4435  144.7144 C   0  0  0  0  0  0  0  0  0  0  0  0
  135.7192  152.4673  144.9834 C   0  0  0  0  0  0  0  0  0  0  0  0
  138.5073  150.1686  143.2509 C   0  0  0  0  0  0  0  0  0  0  0  0
  134.7774  151.9784  145.6888 C   0  0  0  0  0  0  0  0  0  0  0  0
  139.3250  149.2236  142.5746 O   0  0  0  0  0  0  0  0  0  0  0  0
  137.6656  149.5708  144.0714 C   0  0  0  0  0  0  0  0  0  0  0  0
  1  2  1  0
  2  3  2  0
  3  4  1  0
  3  5  1  0
  1  6  2  0
  5  7  2  0
  6  8  1  0
  4  9  2  0
  6  9  1  0
M  END
$$$$

     RDKit          3D

  9  9  0  0  0  0  0  0  0  0999 V2000
  140.3036  150.2148  139.4783 Cl  0  0  0  0  0  0  0  0  0  0  0  0
  138.6783  150.1860  140.5319 C   0  0  0  0  0  0  0  0  0  0  0  0
  137.6385  149.3831  140.0945 C   0  0  0  0  0  0  0  0  0  0  0  0
  138.7505  150.9487  141.6715 C   0  0  0  0  0  0  0  0  0  0  0  0
  136.5606  149.6034  140.7973 C   0  0  0  0  0  0  0  0  0  0  0  0
  135.2960  149.0163  140.1852 C   0  0  0  0  0  0  0  0  0  0  0  0
  136.5422  150.4642  141.8563 C   0  0  0  0  0  0  0  0  0  0  0  0
  137.6548  151.0739  142.3499 C   0  0  0  0  0  0  0  0  0  0  0  0
  137.6493  151.9876  143.7449 C   0  0  0  0  0  0  0  0  0  0  0  0
  1  2  1  0
  2  3  2  0
  2  4  1  0
  3  5  1  0
  5  6  1  0
  5  7  2  0
  4  8  2  0
  7  8  1  0
  8  9  1  0
M  END
$$$$

     RDKit          3D

  9  9  0  0  0  0  0  0  0  0999 V2000
  140.3036  150.2148  139.4783 Cl  0  0  0  0  0  0  0  0  0  0  0  0
  138.6783  150.1860  140.5319 C   0  0  0  0  0  0  0  0  0  0  0  0
  137.6385  149.3831  140.0945 C   0  0  0  0  0  0  0  0  0  0  0  0
  138.7505  150.9487  141.6715 C   0  0  0  0  0  0  0  0  0  0  0  0
  136.5606  149.6034  140.7973 C   0  0  0  0  0  0  0  0  0  0  0  0
  135.2960  149.0163  140.1852 C   0  0  0  0  0  0  0  0  0  0  0  0
  136.5422  150.4642  141.8563 C   0  0  0  0  0  0  0  0  0  0  0  0
  137.6256  151.0240  142.3556 C   0  0  0  0  0  0  0  0  0  0  0  0
  137.6197  151.8830  143.9379 Cl  0  0  0  0  0  0  0  0  0  0  0  0
  1  2  1  0
  2  3  2  0
  2  4  1  0
  3  5  1  0
  5  6  1  0
  5  7  2  0
  4  8  2  0
  7  8  1  0
  8  9  1  0
M  END
$$$$

     RDKit          3D

  9  9  0  0  0  0  0  0  0  0999 V2000
  139.3427  149.9935  140.5880 C   0  0  0  0  0  0  0  0  0  0  0  0
  138.9528  149.9224  139.3656 C   0  0  0  0  0  0  0  0  0  0  0  0
  138.6122  150.1102  141.6416 C   0  0  0  0  0  0  0  0  0  0  0  0
  137.1910  149.8704  141.8331 C   0  0  0  0  0  0  0  0  0  0  0  0
  136.5134  149.7658  140.5812 C   0  0  0  0  0  0  0  0  0  0  0  0
  139.2015  150.3839  143.0731 C   0  0  0  0  0  0  0  0  0  0  0  0
  137.1990  149.7173  139.2285 C   0  0  0  0  0  0  0  0  0  0  0  0
  138.2477  150.9007  144.1254 C   0  0  0  0  0  0  0  0  0  0  0  0
  137.8673  152.2495  144.0456 C   0  0  0  0  0  0  0  0  0  0  0  0
  1  2  2  0
  1  3  1  0
  3  4  1  0
  4  5  2  0
  3  6  1  0
  2  7  1  0
  5  7  1  0
  6  8  1  0
  8  9  1  0
M  END
$$$$

     RDKit          3D

  9  9  0  0  0  0  0  0  0  0999 V2000
  139.2621  151.0929  142.4047 C   0  0  0  0  0  0  0  0  0  0  0  0
  138.8616  152.1308  142.9039 C   0  0  0  0  0  0  0  0  0  0  0  0
  137.7831  151.8921  143.8937 C   0  0  0  0  0  0  0  0  0  0  0  0
  140.0672  150.9660  141.1527 C   0  0  0  0  0  0  0  0  0  0  0  0
  139.7978  150.5477  140.1018 C   0  0  0  0  0  0  0  0  0  0  0  0
  137.3706  150.5051  143.9911 C   0  0  0  0  0  0  0  0  0  0  0  0
  137.9864  149.5505  143.2188 C   0  0  0  0  0  0  0  0  0  0  0  0
  140.5206  150.5280  138.8721 C   0  0  0  0  0  0  0  0  0  0  0  0
  138.9698  149.7744  142.4251 C   0  0  0  0  0  0  0  0  0  0  0  0
  1  2  1  0
  2  3  2  0
  1  4  1  0
  4  5  2  3
  3  6  1  0
  6  7  2  0
  5  8  1  0
  1  9  2  0
  7  9  1  0
M  END
$$$$

     RDKit          3D

  9  9  0  0  0  0  0  0  0  0999 V2000
  138.7236  151.5756  143.3190 C   0  0  0  0  0  0  0  0  0  0  0  0
  137.9189  152.3262  143.7538 C   0  0  0  0  0  0  0  0  0  0  0  0
  136.7533  151.7852  144.4573 C   0  0  0  0  0  0  0  0  0  0  0  0
  136.8351  150.4435  144.7144 C   0  0  0  0  0  0  0  0  0  0  0  0
  138.6416  150.0975  143.3873 C   0  0  0  0  0  0  0  0  0  0  0  0
  135.8788  152.7931  145.1449 C   0  0  0  0  0  0  0  0  0  0  0  0
  139.5851  149.2151  142.8573 C   0  0  0  0  0  0  0  0  0  0  0  0
  137.8026  149.6023  144.1955 C   0  0  0  0  0  0  0  0  0  0  0  0
  134.6191  152.3903  145.6642 C   0  0  0  0  0  0  0  0  0  0  0  0
  1  2  1  0
  2  3  2  0
  3  4  1  0
  1  5  2  0
  3  6  1  0
  5  7  1  0
  4  8  2  0
  5  8  1  0
  6  9  1  0
M  END
$$$$

     RDKit          3D

  9  8  0  0  0  0  0  0  0  0999 V2000
  139.2621  151.0929  142.4047 C   0  0  0  0  0  0  0  0  0  0  0  0
  138.8616  152.1308  142.9039 C   0  0  0  0  0  0  0  0  0  0  0  0
  137.7831  151.8921  143.8937 C   0  0  0  0  0  0  0  0  0  0  0  0
  140.0672  150.9660  141.1527 C   0  0  0  0  0  0  0  0  0  0  0  0
  139.9022  149.9109  140.2215 C   0  0  0  0  0  0  0  0  0  0  0  0
  137.4077  152.4046  144.9135 C   0  0  0  0  0  0  0  0  0  0  0  0
  136.0667  152.4466  145.4646 C   0  0  0  0  0  0  0  0  0  0  0  0
  139.6491  150.3944  138.8249 C   0  0  0  0  0  0  0  0  0  0  0  0
  135.2240  153.2825  145.1355 C   0  0  0  0  0  0  0  0  0  0  0  0
  1  2  1  0
  2  3  2  3
  1  4  1  0
  4  5  1  0
  3  6  1  0
  6  7  1  0
  5  8  1  0
  7  9  1  0
M  END
$$$$

     RDKit          3D

  9  8  0  0  0  0  0  0  0  0999 V2000
  140.3036  150.2148  139.4783 Cl  0  0  0  0  0  0  0  0  0  0  0  0
  138.6783  150.1860  140.5319 C   0  0  0  0  0  0  0  0  0  0  0  0
  137.6385  149.3831  140.0945 C   0  0  0  0  0  0  0  0  0  0  0  0
  138.8668  150.7183  141.4516 C   0  0  0  0  0  0  0  0  0  0  0  0
  137.8209  150.8018  142.5167 C   0  0  0  0  0  0  0  0  0  0  0  0
  138.0520  151.4561  143.8203 C   0  0  0  0  0  0  0  0  0  0  0  0
  136.9442  151.8360  144.5467 C   0  0  0  0  0  0  0  0  0  0  0  0
  136.5029  149.7041  139.9780 C   0  0  0  0  0  0  0  0  0  0  0  0
  136.0963  150.7949  145.0676 C   0  0  0  0  0  0  0  0  0  0  0  0
  1  2  1  0
  2  3  2  3
  2  4  1  0
  4  5  2  3
  5  6  1  0
  6  7  1  0
  3  8  1  0
  7  9  1  0
M  END
$$$$

     RDKit          3D

  9  9  0  0  0  0  0  0  0  0999 V2000
  138.7236  151.5756  143.3190 C   0  0  0  0  0  0  0  0  0  0  0  0
  137.9189  152.3262  143.7538 C   0  0  0  0  0  0  0  0  0  0  0  0
  136.7533  151.7852  144.4573 C   0  0  0  0  0  0  0  0  0  0  0  0
  136.8351  150.4435  144.7144 C   0  0  0  0  0  0  0  0  0  0  0  0
  138.6416  150.0975  143.3873 C   0  0  0  0  0  0  0  0  0  0  0  0
  135.5494  152.3437  145.0636 C   0  0  0  0  0  0  0  0  0  0  0  0
  137.7368  149.5052  144.2117 C   0  0  0  0  0  0  0  0  0  0  0  0
  134.8002  152.0377  145.8217 C   0  0  0  0  0  0  0  0  0  0  0  0
  135.9905  153.7631  144.8873 C   0  0  0  0  0  0  0  0  0  0  0  0
  1  2  1  0
  2  3  2  0
  3  4  1  0
  1  5  2  0
  3  6  1  0
  4  7  2  0
  5  7  1  0
  6  8  1  0
  6  9  2  0
M  END
$$$$

     RDKit          3D

  9  9  0  0  0  0  0  0  0  0999 V2000
  139.2621  151.0929  142.4047 C   0  0  0  0  0  0  0  0  0  0  0  0
  138.8616  152.1308  142.9039 C   0  0  0  0  0  0  0  0  0  0  0  0
  137.7831  151.8921  143.8937 C   0  0  0  0  0  0  0  0  0  0  0  0
  140.0672  150.9660  141.1527 C   0  0  0  0  0  0  0  0  0  0  0  0
  137.3613  150.4914  143.9587 C   0  0  0  0  0  0  0  0  0  0  0  0
  138.6092  149.8559  142.5419 C   0  0  0  0  0  0  0  0  0  0  0  0
  136.3305  150.3447  145.1100 C   0  0  0  0  0  0  0  0  0  0  0  0
  137.7780  149.4739  143.3592 N   0  0  0  0  0  0  0  0  0  0  0  0
  140.4858  150.6958  139.9798 C   0  0  0  0  0  0  0  0  0  0  0  0
  1  2  1  0
  2  3  2  0
  1  4  1  0
  3  5  1  0
  1  6  2  0
  5  7  1  0
  5  8  2  0
  6  8  1  0
  4  9  3  0
M  END
$$$$

     RDKit          3D

  9  9  0  0  0  0  0  0  0  0999 V2000
  139.0004  149.7631  140.3649 C   0  0  0  0  0  0  0  0  0  0  0  0
  139.7623  150.8543  140.7370 C   0  0  0  0  0  0  0  0  0  0  0  0
  139.2605  149.1459  139.1745 C   0  0  0  0  0  0  0  0  0  0  0  0
  139.5454  151.5142  142.0095 C   0  0  0  0  0  0  0  0  0  0  0  0
  138.4600  150.9915  142.6960 C   0  0  0  0  0  0  0  0  0  0  0  0
  137.9001  149.5381  141.2311 C   0  0  0  0  0  0  0  0  0  0  0  0
  136.9799  148.5381  140.6070 C   0  0  0  0  0  0  0  0  0  0  0  0
  137.6905  150.0855  142.3755 C   0  0  0  0  0  0  0  0  0  0  0  0
  138.2129  151.7964  144.4018 Cl  0  0  0  0  0  0  0  0  0  0  0  0
  1  2  2  0
  1  3  1  0
  2  4  1  0
  4  5  2  0
  1  6  1  0
  6  7  1  0
  5  8  1  0
  6  8  2  0
  5  9  1  0
M  END
$$$$

     RDKit          3D

  9  9  0  0  0  0  0  0  0  0999 V2000
  138.7236  151.5756  143.3190 C   0  0  0  0  0  0  0  0  0  0  0  0
  137.9189  152.3262  143.7538 C   0  0  0  0  0  0  0  0  0  0  0  0
  136.7533  151.7852  144.4573 C   0  0  0  0  0  0  0  0  0  0  0  0
  136.8351  150.4435  144.7144 C   0  0  0  0  0  0  0  0  0  0  0  0
  135.6793  152.5089  145.0370 C   0  0  0  0  0  0  0  0  0  0  0  0
  138.5044  150.1682  143.2677 C   0  0  0  0  0  0  0  0  0  0  0  0
  139.3891  149.2732  142.5582 C   0  0  0  0  0  0  0  0  0  0  0  0
  137.7441  149.6060  144.0372 N   0  0  0  0  0  0  0  0  0  0  0  0
  134.6033  151.9865  145.7996 C   0  0  0  0  0  0  0  0  0  0  0  0
  1  2  1  0
  2  3  2  0
  3  4  1  0
  3  5  1  0
  1  6  2  0
  6  7  1  0
  4  8  2  0
  6  8  1  0
  5  9  1  0
M  END
$$$$

     RDKit          3D

  9  9  0  0  0  0  0  0  0  0999 V2000
  139.3427  149.9935  140.5880 C   0  0  0  0  0  0  0  0  0  0  0  0
  138.9528  149.9224  139.3656 C   0  0  0  0  0  0  0  0  0  0  0  0
  138.6122  150.1102  141.6416 C   0  0  0  0  0  0  0  0  0  0  0  0
  137.1910  149.8704  141.8331 C   0  0  0  0  0  0  0  0  0  0  0  0
  136.4707  150.2696  142.9684 C   0  0  0  0  0  0  0  0  0  0  0  0
  137.3907  150.8159  143.7457 C   0  0  0  0  0  0  0  0  0  0  0  0
  138.8914  150.6079  143.0697 C   0  0  0  0  0  0  0  0  0  0  0  0
  140.7006  150.4231  140.6881 C   0  0  0  0  0  0  0  0  0  0  0  0
  137.2737  151.4568  144.6761 O   0  0  0  0  0  0  0  0  0  0  0  0
  1  2  2  0
  1  3  1  0
  3  4  1  0
  4  5  2  0
  5  6  1  0
  3  7  1  0
  6  7  1  0
  1  8  1  0
  6  9  2  0
M  END
$$$$

     RDKit          3D

  9  9  0  0  0  0  0  0  0  0999 V2000
  139.2621  151.0929  142.4047 C   0  0  0  0  0  0  0  0  0  0  0  0
  138.8616  152.1308  142.9039 C   0  0  0  0  0  0  0  0  0  0  0  0
  137.9118  151.7982  143.7822 C   0  0  0  0  0  0  0  0  0  0  0  0
  138.7623  149.7961  142.5205 C   0  0  0  0  0  0  0  0  0  0  0  0
  137.2977  152.8727  144.6398 C   0  0  0  0  0  0  0  0  0  0  0  0
  136.0129  152.6587  145.2579 C   0  0  0  0  0  0  0  0  0  0  0  0
  135.4442  151.4045  145.0716 C   0  0  0  0  0  0  0  0  0  0  0  0
  137.4840  150.3778  143.7817 C   0  0  0  0  0  0  0  0  0  0  0  0
  135.4371  153.7076  145.9405 C   0  0  0  0  0  0  0  0  0  0  0  0
  1  2  1  0
  2  3  2  0
  1  4  2  0
  3  5  1  0
  5  6  2  3
  6  7  1  0
  3  8  1  0
  4  8  1  0
  6  9  1  0
M  END
$$$$

     RDKit          3D

  9 10  0  0  0  0  0  0  0  0999 V2000
  138.7236  151.5756  143.3190 C   0  0  0  0  0  0  0  0  0  0  0  0
  137.9189  152.3262  143.7538 C   0  0  0  0  0  0  0  0  0  0  0  0
  136.7533  151.7852  144.4573 C   0  0  0  0  0  0  0  0  0  0  0  0
  136.8351  150.4435  144.7144 C   0  0  0  0  0  0  0  0  0  0  0  0
  138.7274  150.3736  143.0180 C   0  0  0  0  0  0  0  0  0  0  0  0
  135.9800  149.8157  145.6775 C   0  0  0  0  0  0  0  0  0  0  0  0
  135.6744  152.2838  145.0180 C   0  0  0  0  0  0  0  0  0  0  0  0
  137.8208  149.5910  143.9653 C   0  0  0  0  0  0  0  0  0  0  0  0
  135.2318  150.9519  145.9898 C   0  0  0  0  0  0  0  0  0  0  0  0
  1  2  1  0
  2  3  2  0
  3  4  1  0
  1  5  2  0
  4  6  1  0
  3  7  1  0
  4  8  2  0
  5  8  1  0
  6  9  2  0
  7  9  1  0
M  END
$$$$

     RDKit          3D

  9  9  0  0  0  0  0  0  0  0999 V2000
  138.7236  151.5756  143.3190 C   0  0  0  0  0  0  0  0  0  0  0  0
  137.9189  152.3262  143.7538 C   0  0  0  0  0  0  0  0  0  0  0  0
  136.7533  151.7852  144.4573 C   0  0  0  0  0  0  0  0  0  0  0  0
  138.5774  150.7784  142.3589 C   0  0  0  0  0  0  0  0  0  0  0  0
  137.2450  150.1180  142.4701 C   0  0  0  0  0  0  0  0  0  0  0  0
  135.9443  152.3333  145.4209 C   0  0  0  0  0  0  0  0  0  0  0  0
  136.3195  150.5674  143.6533 C   0  0  0  0  0  0  0  0  0  0  0  0
  139.4708  150.0546  141.2927 C   0  0  0  0  0  0  0  0  0  0  0  0
  134.7958  151.8579  145.7436 C   0  0  0  0  0  0  0  0  0  0  0  0
  1  2  1  0
  2  3  2  0
  1  4  2  0
  4  5  1  0
  3  6  1  0
  3  7  1  0
  5  7  2  0
  4  8  1  0
  6  9  2  0
M  END
$$$$

     RDKit          3D

  9  9  0  0  0  0  0  0  0  0999 V2000
  139.2621  151.0929  142.4047 C   0  0  0  0  0  0  0  0  0  0  0  0
  138.8616  152.1308  142.9039 C   0  0  0  0  0  0  0  0  0  0  0  0
  137.7831  151.8921  143.8937 C   0  0  0  0  0  0  0  0  0  0  0  0
  137.3591  150.5405  144.0623 C   0  0  0  0  0  0  0  0  0  0  0  0
  136.3238  150.4648  145.1225 C   0  0  0  0  0  0  0  0  0  0  0  0
  139.7269  151.0837  140.8943 C   0  0  0  0  0  0  0  0  0  0  0  0
  135.7744  151.4810  145.5064 C   0  0  0  0  0  0  0  0  0  0  0  0
  137.0288  152.8283  144.5638 C   0  0  0  0  0  0  0  0  0  0  0  0
  136.0907  152.7056  145.4540 C   0  0  0  0  0  0  0  0  0  0  0  0
  1  2  1  0
  2  3  2  3
  3  4  1  0
  4  5  2  0
  1  6  1  0
  5  7  1  0
  3  8  1  0
  7  9  2  0
  8  9  2  0
M  END
$$$$

     RDKit          3D

  9  9  0  0  0  0  0  0  0  0999 V2000
  140.3036  150.2148  139.4783 Cl  0  0  0  0  0  0  0  0  0  0  0  0
  138.6783  150.1860  140.5319 C   0  0  0  0  0  0  0  0  0  0  0  0
  137.6385  149.3831  140.0945 C   0  0  0  0  0  0  0  0  0  0  0  0
  137.5439  148.9625  138.7457 C   0  0  0  0  0  0  0  0  0  0  0  0
  138.4874  150.4374  141.7161 C   0  0  0  0  0  0  0  0  0  0  0  0
  136.4941  149.4206  140.9718 C   0  0  0  0  0  0  0  0  0  0  0  0
  137.3995  150.3551  142.5035 C   0  0  0  0  0  0  0  0  0  0  0  0
  139.7629  151.2592  142.5447 Cl  0  0  0  0  0  0  0  0  0  0  0  0
  136.2813  149.8424  142.0106 C   0  0  0  0  0  0  0  0  0  0  0  0
  1  2  1  0
  2  3  2  0
  3  4  1  0
  2  5  1  0
  3  6  1  0
  5  7  2  0
  5  8  1  0
  6  9  2  0
  7  9  1  0
M  END
$$$$

     RDKit          3D

  9  8  0  0  0  0  0  0  0  0999 V2000
  139.2621  151.0929  142.4047 C   0  0  0  0  0  0  0  0  0  0  0  0
  138.8616  152.1308  142.9039 C   0  0  0  0  0  0  0  0  0  0  0  0
  137.7831  151.8921  143.8937 C   0  0  0  0  0  0  0  0  0  0  0  0
  140.0672  150.9660  141.1527 C   0  0  0  0  0  0  0  0  0  0  0  0
  139.7978  150.5477  140.1018 C   0  0  0  0  0  0  0  0  0  0  0  0
  137.0760  152.8082  144.6481 C   0  0  0  0  0  0  0  0  0  0  0  0
  136.1232  152.7107  145.2081 C   0  0  0  0  0  0  0  0  0  0  0  0
  138.6010  149.6978  140.0566 C   0  0  0  0  0  0  0  0  0  0  0  0
  135.4261  151.3986  145.2692 C   0  0  0  0  0  0  0  0  0  0  0  0
  1  2  1  0
  2  3  2  3
  1  4  1  0
  4  5  2  3
  3  6  1  0
  6  7  2  3
  5  8  1  0
  7  9  1  0
M  END
$$$$

     RDKit          3D

  9  9  0  0  0  0  0  0  0  0999 V2000
  139.3427  149.9935  140.5880 C   0  0  0  0  0  0  0  0  0  0  0  0
  138.9528  149.9224  139.3656 C   0  0  0  0  0  0  0  0  0  0  0  0
  138.6122  150.1102  141.6416 C   0  0  0  0  0  0  0  0  0  0  0  0
  137.1910  149.8704  141.8331 C   0  0  0  0  0  0  0  0  0  0  0  0
  136.4707  150.2696  142.9684 C   0  0  0  0  0  0  0  0  0  0  0  0
  137.3907  150.8159  143.7457 C   0  0  0  0  0  0  0  0  0  0  0  0
  138.8936  150.6084  142.9966 C   0  0  0  0  0  0  0  0  0  0  0  0
  140.6893  150.0999  140.9727 C   0  0  0  0  0  0  0  0  0  0  0  0
  137.3456  151.3771  144.9704 C   0  0  0  0  0  0  0  0  0  0  0  0
  1  2  2  0
  1  3  1  0
  3  4  1  0
  4  5  2  0
  5  6  1  0
  3  7  1  0
  6  7  1  0
  1  8  1  0
  6  9  2  0
M  END
$$$$

     RDKit          3D

  9  9  0  0  0  0  0  0  0  0999 V2000
  139.0004  149.7631  140.3649 C   0  0  0  0  0  0  0  0  0  0  0  0
  138.7142  149.5451  139.1249 C   0  0  0  0  0  0  0  0  0  0  0  0
  138.1856  150.1072  141.2839 C   0  0  0  0  0  0  0  0  0  0  0  0
  137.3213  149.5926  138.6821 C   0  0  0  0  0  0  0  0  0  0  0  0
  136.9821  149.1480  137.4604 O   0  0  0  0  0  0  0  0  0  0  0  0
  136.4845  149.6051  139.7308 C   0  0  0  0  0  0  0  0  0  0  0  0
  135.0210  149.6522  139.5840 O   0  0  0  0  0  0  0  0  0  0  0  0
  136.8788  150.0390  141.1240 C   0  0  0  0  0  0  0  0  0  0  0  0
  138.6937  150.7422  142.8313 Cl  0  0  0  0  0  0  0  0  0  0  0  0
  1  2  2  0
  1  3  1  0
  2  4  1  0
  4  5  1  0
  4  6  2  0
  6  7  1  0
  3  8  2  0
  6  8  1  0
  3  9  1  0
M  END
$$$$

     RDKit          3D

  9  9  0  0  0  0  0  0  0  0999 V2000
  138.7236  151.5756  143.3190 C   0  0  0  0  0  0  0  0  0  0  0  0
  137.9189  152.3262  143.7538 C   0  0  0  0  0  0  0  0  0  0  0  0
  136.7533  151.7852  144.4573 C   0  0  0  0  0  0  0  0  0  0  0  0
  138.5774  150.7784  142.3589 C   0  0  0  0  0  0  0  0  0  0  0  0
  137.2450  150.1180  142.4701 C   0  0  0  0  0  0  0  0  0  0  0  0
  135.9443  152.3333  145.4209 C   0  0  0  0  0  0  0  0  0  0  0  0
  134.9004  151.7717  145.7686 C   0  0  0  0  0  0  0  0  0  0  0  0
  136.7565  149.3103  141.4379 C   0  0  0  0  0  0  0  0  0  0  0  0
  136.3979  150.5815  143.5234 C   0  0  0  0  0  0  0  0  0  0  0  0
  1  2  1  0
  2  3  2  0
  1  4  2  0
  4  5  1  0
  3  6  1  0
  6  7  2  0
  5  8  1  0
  3  9  1  0
  5  9  2  0
M  END
$$$$

     RDKit          3D

  9  8  0  0  0  0  0  0  0  0999 V2000
  138.7236  151.5756  143.3190 C   0  0  0  0  0  0  0  0  0  0  0  0
  137.9189  152.3262  143.7538 C   0  0  0  0  0  0  0  0  0  0  0  0
  136.7533  151.7852  144.4573 C   0  0  0  0  0  0  0  0  0  0  0  0
  138.5774  150.7784  142.3589 C   0  0  0  0  0  0  0  0  0  0  0  0
  139.4299  150.3899  141.2535 C   0  0  0  0  0  0  0  0  0  0  0  0
  136.5850  150.4067  144.4403 C   0  0  0  0  0  0  0  0  0  0  0  0
  140.6889  150.5451  141.0930 O   0  0  0  0  0  0  0  0  0  0  0  0
  138.8214  149.9409  140.1433 O   0  0  0  0  0  0  0  0  0  0  0  0
  135.7376  152.5644  145.1728 C   0  0  0  0  0  0  0  0  0  0  0  0
  1  2  1  0
  2  3  2  3
  1  4  2  3
  4  5  1  0
  3  6  1  0
  5  7  1  0
  5  8  2  0
  3  9  1  0
M  END
$$$$

     RDKit          3D

  9  9  0  0  0  0  0  0  0  0999 V2000
  138.7090  151.1469  142.6269 C   0  0  0  0  0  0  0  0  0  0  0  0
  138.5260  151.9370  143.5114 C   0  0  0  0  0  0  0  0  0  0  0  0
  137.3819  151.6579  144.3963 C   0  0  0  0  0  0  0  0  0  0  0  0
  139.7051  151.1184  141.6077 C   0  0  0  0  0  0  0  0  0  0  0  0
  136.7557  152.5772  145.3074 C   0  0  0  0  0  0  0  0  0  0  0  0
  139.6288  150.4580  140.3315 C   0  0  0  0  0  0  0  0  0  0  0  0
  138.4571  149.6004  140.4454 C   0  0  0  0  0  0  0  0  0  0  0  0
  137.7812  150.0618  142.1713 C   0  0  0  0  0  0  0  0  0  0  0  0
  135.4722  152.3347  145.7973 C   0  0  0  0  0  0  0  0  0  0  0  0
  1  2  1  0
  2  3  2  3
  1  4  1  0
  3  5  1  0
  4  6  2  0
  6  7  1  0
  1  8  2  0
  7  8  1  0
  5  9  1  0
M  END
$$$$

     RDKit          3D

  9  9  0  0  0  0  0  0  0  0999 V2000
  138.9705  151.3124  142.5681 C   0  0  0  0  0  0  0  0  0  0  0  0
  138.6057  152.0894  143.2653 C   0  0  0  0  0  0  0  0  0  0  0  0
  137.6600  151.8349  144.0467 C   0  0  0  0  0  0  0  0  0  0  0  0
  136.5812  152.7548  144.5687 C   0  0  0  0  0  0  0  0  0  0  0  0
  138.3017  149.9409  142.5892 C   0  0  0  0  0  0  0  0  0  0  0  0
  137.1653  150.3973  144.2566 C   0  0  0  0  0  0  0  0  0  0  0  0
  137.5806  149.5054  143.5641 C   0  0  0  0  0  0  0  0  0  0  0  0
  135.3507  152.4338  145.0840 C   0  0  0  0  0  0  0  0  0  0  0  0
  134.6763  153.4126  145.8551 C   0  0  0  0  0  0  0  0  0  0  0  0
  1  2  2  0
  2  3  1  0
  3  4  1  0
  1  5  1  0
  3  6  2  0
  5  7  2  0
  6  7  1  0
  4  8  1  0
  8  9  1  0
M  END
$$$$

     RDKit          3D

  9  9  0  0  0  0  0  0  0  0999 V2000
  139.3427  149.9935  140.5880 C   0  0  0  0  0  0  0  0  0  0  0  0
  138.9528  149.9224  139.3656 C   0  0  0  0  0  0  0  0  0  0  0  0
  138.6122  150.1102  141.6416 C   0  0  0  0  0  0  0  0  0  0  0  0
  137.1910  149.8704  141.8331 C   0  0  0  0  0  0  0  0  0  0  0  0
  136.5134  149.7658  140.5812 C   0  0  0  0  0  0  0  0  0  0  0  0
  139.2015  150.3839  143.0731 C   0  0  0  0  0  0  0  0  0  0  0  0
  137.1990  149.7173  139.2285 C   0  0  0  0  0  0  0  0  0  0  0  0
  138.2477  150.9007  144.1254 C   0  0  0  0  0  0  0  0  0  0  0  0
  137.3358  150.2520  144.6316 C   0  0  0  0  0  0  0  0  0  0  0  0
  1  2  2  0
  1  3  1  0
  3  4  1  0
  4  5  2  0
  3  6  1  0
  2  7  1  0
  5  7  1  0
  6  8  1  0
  8  9  2  0
M  END
$$$$

     RDKit          3D

  9  9  0  0  0  0  0  0  0  0999 V2000
  139.2621  151.0929  142.4047 C   0  0  0  0  0  0  0  0  0  0  0  0
  138.8616  152.1308  142.9039 C   0  0  0  0  0  0  0  0  0  0  0  0
  137.9118  151.7982  143.7822 C   0  0  0  0  0  0  0  0  0  0  0  0
  138.8285  150.4008  141.6024 C   0  0  0  0  0  0  0  0  0  0  0  0
  137.6662  149.9534  141.7610 C   0  0  0  0  0  0  0  0  0  0  0  0
  136.7054  150.4876  142.6446 C   0  0  0  0  0  0  0  0  0  0  0  0
  136.8348  151.3341  143.7043 C   0  0  0  0  0  0  0  0  0  0  0  0
  135.7039  151.5109  144.6694 C   0  0  0  0  0  0  0  0  0  0  0  0
  135.8672  152.3029  145.5664 O   0  0  0  0  0  0  0  0  0  0  0  0
  1  2  1  0
  2  3  2  0
  1  4  2  0
  4  5  1  0
  5  6  2  0
  3  7  1  0
  6  7  1  0
  7  8  1  0
  8  9  2  0
M  END
$$$$

     RDKit          3D

 10 10  0  0  0  0  0  0  0  0999 V2000
  140.3036  150.2148  139.4783 Cl  0  0  0  0  0  0  0  0  0  0  0  0
  138.6783  150.1860  140.5319 C   0  0  0  0  0  0  0  0  0  0  0  0
  137.6385  149.3831  140.0945 C   0  0  0  0  0  0  0  0  0  0  0  0
  138.8668  150.7183  141.4516 C   0  0  0  0  0  0  0  0  0  0  0  0
  138.3194  150.9395  142.2987 C   0  0  0  0  0  0  0  0  0  0  0  0
  136.9007  150.1342  142.2766 C   0  0  0  0  0  0  0  0  0  0  0  0
  136.0346  150.4104  143.3393 C   0  0  0  0  0  0  0  0  0  0  0  0
  136.1506  150.5888  144.5198 C   0  0  0  0  0  0  0  0  0  0  0  0
  136.5815  149.4958  141.0792 C   0  0  0  0  0  0  0  0  0  0  0  0
  137.4180  150.3972  145.2148 C   0  0  0  0  0  0  0  0  0  0  0  0
  1  2  1  0
  2  3  2  0
  2  4  1  0
  4  5  2  0
  5  6  1  0
  6  7  1  0
  7  8  2  3
  3  9  1  0
  6  9  2  0
  8 10  1  0
M  END
$$$$

     RDKit          3D

 10 11  0  0  0  0  0  0  0  0999 V2000
  138.9705  151.3124  142.5681 C   0  0  0  0  0  0  0  0  0  0  0  0
  138.6057  152.0894  143.2653 C   0  0  0  0  0  0  0  0  0  0  0  0
  137.5209  151.8314  144.2019 C   0  0  0  0  0  0  0  0  0  0  0  0
  138.4515  149.8627  142.6446 C   0  0  0  0  0  0  0  0  0  0  0  0
  137.0534  152.8828  145.0294 C   0  0  0  0  0  0  0  0  0  0  0  0
  136.9343  150.7201  144.3627 C   0  0  0  0  0  0  0  0  0  0  0  0
  135.9776  150.3860  145.3365 C   0  0  0  0  0  0  0  0  0  0  0  0
  135.8937  152.7823  145.7610 C   0  0  0  0  0  0  0  0  0  0  0  0
  135.4000  151.5234  146.0537 C   0  0  0  0  0  0  0  0  0  0  0  0
  137.4384  149.5983  143.5505 N   0  0  0  0  0  0  0  0  0  0  0  0
  1  2  2  0
  2  3  1  0
  1  4  1  0
  3  5  1  0
  3  6  2  0
  6  7  1  0
  5  8  2  0
  7  9  2  0
  8  9  1  0
  4 10  2  0
  6 10  1  0
M  END
$$$$

     RDKit          3D

 10 10  0  0  0  0  0  0  0  0999 V2000
  140.3036  150.2148  139.4783 Cl  0  0  0  0  0  0  0  0  0  0  0  0
  138.6783  150.1860  140.5319 C   0  0  0  0  0  0  0  0  0  0  0  0
  137.6385  149.3831  140.0945 C   0  0  0  0  0  0  0  0  0  0  0  0
  138.7505  150.9487  141.6715 C   0  0  0  0  0  0  0  0  0  0  0  0
  136.5606  149.6034  140.7973 C   0  0  0  0  0  0  0  0  0  0  0  0
  135.2960  149.0163  140.1852 C   0  0  0  0  0  0  0  0  0  0  0  0
  136.5422  150.4642  141.8563 C   0  0  0  0  0  0  0  0  0  0  0  0
  135.3353  150.6737  142.7430 C   0  0  0  0  0  0  0  0  0  0  0  0
  137.7232  151.0681  142.3933 C   0  0  0  0  0  0  0  0  0  0  0  0
  137.8823  151.8840  143.6648 C   0  0  0  0  0  0  0  0  0  0  0  0
  1  2  1  0
  2  3  2  0
  2  4  1  0
  3  5  1  0
  5  6  1  0
  5  7  2  0
  7  8  1  0
  4  9  2  0
  7  9  1  0
  9 10  1  0
M  END
$$$$

     RDKit          3D

 10 11  0  0  0  0  0  0  0  0999 V2000
  139.2621  151.0929  142.4047 C   0  0  0  0  0  0  0  0  0  0  0  0
  138.8616  152.1308  142.9039 C   0  0  0  0  0  0  0  0  0  0  0  0
  137.7831  151.8921  143.8937 C   0  0  0  0  0  0  0  0  0  0  0  0
  140.0672  150.9660  141.1527 C   0  0  0  0  0  0  0  0  0  0  0  0
  139.7978  150.5477  140.1018 C   0  0  0  0  0  0  0  0  0  0  0  0
  137.3706  150.5051  143.9911 C   0  0  0  0  0  0  0  0  0  0  0  0
  137.9864  149.5505  143.2188 C   0  0  0  0  0  0  0  0  0  0  0  0
  138.5536  149.7311  140.0424 C   0  0  0  0  0  0  0  0  0  0  0  0
  138.8751  149.8533  142.2970 C   0  0  0  0  0  0  0  0  0  0  0  0
  138.6784  149.0760  141.2531 N   0  0  0  0  0  0  0  0  0  0  0  0
  1  2  1  0
  2  3  2  0
  1  4  1  0
  4  5  2  0
  3  6  1  0
  6  7  2  0
  5  8  1  0
  1  9  2  0
  7  9  1  0
  8 10  1  0
  9 10  1  0
M  END
$$$$

     RDKit          3D

 10 10  0  0  0  0  0  0  0  0999 V2000
  140.3036  150.2148  139.4783 Cl  0  0  0  0  0  0  0  0  0  0  0  0
  138.6783  150.1860  140.5319 C   0  0  0  0  0  0  0  0  0  0  0  0
  137.6385  149.3831  140.0945 C   0  0  0  0  0  0  0  0  0  0  0  0
  138.8668  150.7183  141.4516 C   0  0  0  0  0  0  0  0  0  0  0  0
  137.5308  148.8049  138.7967 C   0  0  0  0  0  0  0  0  0  0  0  0
  137.9039  150.8483  142.6245 C   0  0  0  0  0  0  0  0  0  0  0  0
  136.5134  149.5452  140.9489 C   0  0  0  0  0  0  0  0  0  0  0  0
  135.2367  149.1395  140.5862 C   0  0  0  0  0  0  0  0  0  0  0  0
  136.6642  150.2522  142.2172 C   0  0  0  0  0  0  0  0  0  0  0  0
  138.0056  151.5807  143.9815 Cl  0  0  0  0  0  0  0  0  0  0  0  0
  1  2  1  0
  2  3  2  0
  2  4  1  0
  3  5  1  0
  4  6  2  0
  3  7  1  0
  7  8  1  0
  6  9  1  0
  7  9  2  0
  6 10  1  0
M  END
$$$$

     RDKit          3D

 10 10  0  0  0  0  0  0  0  0999 V2000
  138.7236  151.5756  143.3190 C   0  0  0  0  0  0  0  0  0  0  0  0
  137.9189  152.3262  143.7538 C   0  0  0  0  0  0  0  0  0  0  0  0
  136.7533  151.7852  144.4573 C   0  0  0  0  0  0  0  0  0  0  0  0
  136.8351  150.4435  144.7144 C   0  0  0  0  0  0  0  0  0  0  0  0
  138.6416  150.0975  143.3873 C   0  0  0  0  0  0  0  0  0  0  0  0
  135.5494  152.3437  145.0636 C   0  0  0  0  0  0  0  0  0  0  0  0
  139.6034  149.2481  142.7989 C   0  0  0  0  0  0  0  0  0  0  0  0
  137.8590  149.6012  144.1647 N   0  0  0  0  0  0  0  0  0  0  0  0
  134.7351  151.9135  145.8671 C   0  0  0  0  0  0  0  0  0  0  0  0
  135.3996  153.7201  144.6376 O   0  0  0  0  0  0  0  0  0  0  0  0
  1  2  1  0
  2  3  2  0
  3  4  1  0
  1  5  2  0
  3  6  1  0
  5  7  1  0
  4  8  2  0
  5  8  1  0
  6  9  1  0
  6 10  2  0
M  END
$$$$

     RDKit          3D

 10 11  0  0  0  0  0  0  0  0999 V2000
  138.7090  151.1469  142.6269 C   0  0  0  0  0  0  0  0  0  0  0  0
  138.5260  151.9370  143.5114 C   0  0  0  0  0  0  0  0  0  0  0  0
  137.3819  151.6579  144.3963 C   0  0  0  0  0  0  0  0  0  0  0  0
  139.7051  151.1184  141.6077 C   0  0  0  0  0  0  0  0  0  0  0  0
  136.7072  150.4347  144.0265 C   0  0  0  0  0  0  0  0  0  0  0  0
  139.4496  150.8400  140.3164 C   0  0  0  0  0  0  0  0  0  0  0  0
  138.1688  150.1903  140.1998 C   0  0  0  0  0  0  0  0  0  0  0  0
  137.2447  149.9095  141.0994 C   0  0  0  0  0  0  0  0  0  0  0  0
  137.5275  150.3001  142.3602 C   0  0  0  0  0  0  0  0  0  0  0  0
  136.6728  149.8497  143.0450 C   0  0  0  0  0  0  0  0  0  0  0  0
  1  2  1  0
  2  3  2  0
  1  4  1  0
  3  5  1  0
  4  6  2  0
  6  7  1  0
  7  8  2  0
  1  9  2  0
  8  9  1  0
  5 10  2  0
  9 10  1  0
M  END
$$$$

     RDKit          3D

 10 10  0  0  0  0  0  0  0  0999 V2000
  139.3945  150.7512  142.0131 C   0  0  0  0  0  0  0  0  0  0  0  0
  139.0648  150.4899  140.7531 C   0  0  0  0  0  0  0  0  0  0  0  0
  138.4477  150.6358  143.0423 C   0  0  0  0  0  0  0  0  0  0  0  0
  137.8333  149.9852  140.4375 C   0  0  0  0  0  0  0  0  0  0  0  0
  136.8171  149.7852  141.4624 C   0  0  0  0  0  0  0  0  0  0  0  0
  138.7929  151.0544  144.4367 C   0  0  0  0  0  0  0  0  0  0  0  0
  137.7744  151.8317  144.9216 C   0  0  0  0  0  0  0  0  0  0  0  0
  137.0788  150.3186  142.6542 C   0  0  0  0  0  0  0  0  0  0  0  0
  136.6068  151.5223  145.5163 C   0  0  0  0  0  0  0  0  0  0  0  0
  140.1807  150.6516  139.5624 C   0  0  0  0  0  0  0  0  0  0  0  0
  1  2  2  0
  1  3  1  0
  2  4  1  0
  4  5  2  0
  3  6  1  0
  6  7  2  3
  3  8  2  0
  5  8  1  0
  7  9  1  0
  2 10  1  0
M  END
$$$$

     RDKit          3D

 10 10  0  0  0  0  0  0  0  0999 V2000
  138.9705  151.3124  142.5681 C   0  0  0  0  0  0  0  0  0  0  0  0
  138.6057  152.0894  143.2653 C   0  0  0  0  0  0  0  0  0  0  0  0
  137.5209  151.8314  144.2019 C   0  0  0  0  0  0  0  0  0  0  0  0
  136.5811  152.7823  144.6505 C   0  0  0  0  0  0  0  0  0  0  0  0
  135.5281  152.5971  145.5921 C   0  0  0  0  0  0  0  0  0  0  0  0
  135.4711  151.1567  145.9206 C   0  0  0  0  0  0  0  0  0  0  0  0
  136.4065  150.4067  145.3810 C   0  0  0  0  0  0  0  0  0  0  0  0
  137.3148  150.5110  144.5825 C   0  0  0  0  0  0  0  0  0  0  0  0
  139.4909  151.2005  141.6098 C   0  0  0  0  0  0  0  0  0  0  0  0
  139.6113  150.8688  140.4819 C   0  0  0  0  0  0  0  0  0  0  0  0
  1  2  2  3
  2  3  1  0
  3  4  1  0
  4  5  2  0
  5  6  1  0
  6  7  2  0
  3  8  2  0
  7  8  1  0
  1  9  1  0
  9 10  3  0
M  END
$$$$

     RDKit          3D

 10 10  0  0  0  0  0  0  0  0999 V2000
  139.2621  151.0929  142.4047 C   0  0  0  0  0  0  0  0  0  0  0  0
  138.8616  152.1308  142.9039 C   0  0  0  0  0  0  0  0  0  0  0  0
  137.7831  151.8921  143.8937 C   0  0  0  0  0  0  0  0  0  0  0  0
  137.3591  150.5405  144.0623 C   0  0  0  0  0  0  0  0  0  0  0  0
  136.3238  150.4648  145.1225 C   0  0  0  0  0  0  0  0  0  0  0  0
  139.7269  151.0837  140.8943 C   0  0  0  0  0  0  0  0  0  0  0  0
  135.7744  151.4810  145.5064 C   0  0  0  0  0  0  0  0  0  0  0  0
  137.0288  152.8283  144.5638 C   0  0  0  0  0  0  0  0  0  0  0  0
  134.5989  151.3126  146.5261 C   0  0  0  0  0  0  0  0  0  0  0  0
  136.0018  152.8015  145.3082 C   0  0  0  0  0  0  0  0  0  0  0  0
  1  2  1  0
  2  3  2  3
  3  4  1  0
  4  5  2  0
  1  6  1  0
  5  7  1  0
  3  8  1  0
  7  9  1  0
  7 10  2  0
  8 10  2  0
M  END
$$$$

     RDKit          3D

 10 11  0  0  0  0  0  0  0  0999 V2000
  140.3036  150.2148  139.4783 Cl  0  0  0  0  0  0  0  0  0  0  0  0
  138.6783  150.1860  140.5319 C   0  0  0  0  0  0  0  0  0  0  0  0
  137.6385  149.3831  140.0945 C   0  0  0  0  0  0  0  0  0  0  0  0
  136.4392  149.4569  140.8209 C   0  0  0  0  0  0  0  0  0  0  0  0
  138.9819  150.6978  141.6811 C   0  0  0  0  0  0  0  0  0  0  0  0
  136.5079  150.3497  141.8163 C   0  0  0  0  0  0  0  0  0  0  0  0
  135.2761  150.6086  142.7157 C   0  0  0  0  0  0  0  0  0  0  0  0
  135.7352  151.2618  143.9974 C   0  0  0  0  0  0  0  0  0  0  0  0
  137.6958  150.8860  142.4834 C   0  0  0  0  0  0  0  0  0  0  0  0
  137.5119  151.4685  143.8232 S   0  0  0  0  0  0  0  0  0  0  0  0
  1  2  1  0
  2  3  2  0
  3  4  1  0
  2  5  1  0
  4  6  2  0
  6  7  1  0
  7  8  2  0
  5  9  2  0
  6  9  1  0
  8 10  1  0
  9 10  1  0
M  END
$$$$

     RDKit          3D

 10 11  0  0  0  0  0  0  0  0999 V2000
  140.3036  150.2148  139.4783 Cl  0  0  0  0  0  0  0  0  0  0  0  0
  138.6783  150.1860  140.5319 C   0  0  0  0  0  0  0  0  0  0  0  0
  137.6385  149.3831  140.0945 C   0  0  0  0  0  0  0  0  0  0  0  0
  139.0332  150.8824  141.6179 C   0  0  0  0  0  0  0  0  0  0  0  0
  136.4856  149.4719  141.0089 C   0  0  0  0  0  0  0  0  0  0  0  0
  136.6941  150.4320  141.9099 C   0  0  0  0  0  0  0  0  0  0  0  0
  135.4560  150.7034  142.8865 C   0  0  0  0  0  0  0  0  0  0  0  0
  135.9662  151.2424  144.1646 C   0  0  0  0  0  0  0  0  0  0  0  0
  137.3893  151.3743  144.2130 C   0  0  0  0  0  0  0  0  0  0  0  0
  137.8363  150.9789  142.4678 C   0  0  0  0  0  0  0  0  0  0  0  0
  1  2  1  0
  2  3  2  0
  2  4  1  0
  3  5  1  0
  5  6  2  0
  6  7  1  0
  7  8  2  0
  8  9  1  0
  4 10  2  0
  6 10  1  0
  9 10  1  0
M  END
$$$$

     RDKit          3D

 10 10  0  0  0  0  0  0  0  0999 V2000
  140.3036  150.2148  139.4783 Cl  0  0  0  0  0  0  0  0  0  0  0  0
  138.6783  150.1860  140.5319 C   0  0  0  0  0  0  0  0  0  0  0  0
  137.6385  149.3831  140.0945 C   0  0  0  0  0  0  0  0  0  0  0  0
  138.8668  150.7183  141.4516 C   0  0  0  0  0  0  0  0  0  0  0  0
  137.5308  148.8049  138.7967 C   0  0  0  0  0  0  0  0  0  0  0  0
  136.5059  149.4846  140.9722 C   0  0  0  0  0  0  0  0  0  0  0  0
  138.2654  150.9324  142.3972 C   0  0  0  0  0  0  0  0  0  0  0  0
  135.2493  149.0811  140.5977 C   0  0  0  0  0  0  0  0  0  0  0  0
  138.4450  151.5815  143.7593 C   0  0  0  0  0  0  0  0  0  0  0  0
  136.8527  150.3195  142.3127 C   0  0  0  0  0  0  0  0  0  0  0  0
  1  2  1  0
  2  3  2  0
  2  4  1  0
  3  5  1  0
  3  6  1  0
  4  7  2  0
  6  8  1  0
  7  9  1  0
  6 10  2  0
  7 10  1  0
M  END
$$$$

     RDKit          3D

 10 10  0  0  0  0  0  0  0  0999 V2000
  138.7090  151.1469  142.6269 C   0  0  0  0  0  0  0  0  0  0  0  0
  138.5260  151.9370  143.5114 C   0  0  0  0  0  0  0  0  0  0  0  0
  137.3819  151.6579  144.3963 C   0  0  0  0  0  0  0  0  0  0  0  0
  139.7051  151.1184  141.6077 C   0  0  0  0  0  0  0  0  0  0  0  0
  136.7557  152.5772  145.3074 C   0  0  0  0  0  0  0  0  0  0  0  0
  139.6288  150.4580  140.3315 C   0  0  0  0  0  0  0  0  0  0  0  0
  135.4634  152.3733  145.7817 C   0  0  0  0  0  0  0  0  0  0  0  0
  138.4482  149.6064  140.4217 C   0  0  0  0  0  0  0  0  0  0  0  0
  137.9583  148.9237  139.2159 C   0  0  0  0  0  0  0  0  0  0  0  0
  137.7388  149.8582  141.6788 C   0  0  0  0  0  0  0  0  0  0  0  0
  1  2  1  0
  2  3  2  3
  1  4  1  0
  3  5  1  0
  4  6  2  0
  5  7  1  0
  6  8  1  0
  8  9  1  0
  1 10  1  0
  8 10  2  0
M  END
$$$$

     RDKit          3D

 10 10  0  0  0  0  0  0  0  0999 V2000
  138.7090  151.1469  142.6269 C   0  0  0  0  0  0  0  0  0  0  0  0
  138.5260  151.9370  143.5114 C   0  0  0  0  0  0  0  0  0  0  0  0
  137.4749  151.6734  144.4638 C   0  0  0  0  0  0  0  0  0  0  0  0
  138.0103  149.8673  142.4738 C   0  0  0  0  0  0  0  0  0  0  0  0
  136.7212  150.4817  144.2964 C   0  0  0  0  0  0  0  0  0  0  0  0
  137.0162  149.5952  143.3274 C   0  0  0  0  0  0  0  0  0  0  0  0
  137.1315  152.6397  145.4953 C   0  0  0  0  0  0  0  0  0  0  0  0
  139.7947  151.3208  141.5586 C   0  0  0  0  0  0  0  0  0  0  0  0
  136.0018  153.1896  145.3875 C   0  0  0  0  0  0  0  0  0  0  0  0
  139.6206  150.8352  140.3259 C   0  0  0  0  0  0  0  0  0  0  0  0
  1  2  2  0
  2  3  1  0
  1  4  1  0
  3  5  2  0
  4  6  2  0
  5  6  1  0
  3  7  1  0
  1  8  1  0
  7  9  1  0
  8 10  2  0
M  END
$$$$

     RDKit          3D

 10 10  0  0  0  0  0  0  0  0999 V2000
  139.5348  150.8906  142.2305 C   0  0  0  0  0  0  0  0  0  0  0  0
  139.0139  150.3976  141.0574 C   0  0  0  0  0  0  0  0  0  0  0  0
  138.6965  150.9489  143.4028 C   0  0  0  0  0  0  0  0  0  0  0  0
  137.7130  149.9460  141.0427 C   0  0  0  0  0  0  0  0  0  0  0  0
  137.5183  150.9374  143.4785 C   0  0  0  0  0  0  0  0  0  0  0  0
  136.6733  151.1274  144.6812 C   0  0  0  0  0  0  0  0  0  0  0  0
  136.8075  150.3340  142.2712 C   0  0  0  0  0  0  0  0  0  0  0  0
  139.8325  150.3451  139.7766 C   0  0  0  0  0  0  0  0  0  0  0  0
  141.2337  150.3116  139.9457 C   0  0  0  0  0  0  0  0  0  0  0  0
  139.3910  150.3656  138.7952 O   0  0  0  0  0  0  0  0  0  0  0  0
  1  2  2  0
  1  3  1  0
  2  4  1  0
  3  5  2  0
  5  6  1  0
  4  7  2  0
  5  7  1  0
  2  8  1  0
  8  9  1  0
  8 10  2  0
M  END
$$$$

     RDKit          3D

 10 10  0  0  0  0  0  0  0  0999 V2000
  140.3036  150.2148  139.4783 Cl  0  0  0  0  0  0  0  0  0  0  0  0
  138.6783  150.1860  140.5319 C   0  0  0  0  0  0  0  0  0  0  0  0
  137.6385  149.3831  140.0945 C   0  0  0  0  0  0  0  0  0  0  0  0
  137.5439  148.9625  138.7457 C   0  0  0  0  0  0  0  0  0  0  0  0
  138.4874  150.4374  141.7161 C   0  0  0  0  0  0  0  0  0  0  0  0
  136.4941  149.4206  140.9718 C   0  0  0  0  0  0  0  0  0  0  0  0
  137.3995  150.3551  142.5035 C   0  0  0  0  0  0  0  0  0  0  0  0
  139.7629  151.2592  142.5447 Cl  0  0  0  0  0  0  0  0  0  0  0  0
  135.2532  148.9218  140.1283 C   0  0  0  0  0  0  0  0  0  0  0  0
  136.3465  149.8627  142.1061 C   0  0  0  0  0  0  0  0  0  0  0  0
  1  2  1  0
  2  3  2  0
  3  4  1  0
  2  5  1  0
  3  6  1  0
  5  7  2  0
  5  8  1  0
  6  9  1  0
  6 10  2  0
  7 10  1  0
M  END
$$$$

     RDKit          3D

 10 11  0  0  0  0  0  0  0  0999 V2000
  139.2621  151.0929  142.4047 C   0  0  0  0  0  0  0  0  0  0  0  0
  138.8616  152.1308  142.9039 C   0  0  0  0  0  0  0  0  0  0  0  0
  137.9118  151.7982  143.7822 C   0  0  0  0  0  0  0  0  0  0  0  0
  138.8285  150.4008  141.6024 C   0  0  0  0  0  0  0  0  0  0  0  0
  137.6662  149.9534  141.7610 C   0  0  0  0  0  0  0  0  0  0  0  0
  137.5078  152.6004  144.9580 C   0  0  0  0  0  0  0  0  0  0  0  0
  136.7566  150.5976  142.5696 C   0  0  0  0  0  0  0  0  0  0  0  0
  136.7865  151.2734  143.6287 C   0  0  0  0  0  0  0  0  0  0  0  0
  135.8685  151.3797  144.7233 C   0  0  0  0  0  0  0  0  0  0  0  0
  136.3716  152.2703  145.4581 N   0  0  0  0  0  0  0  0  0  0  0  0
  1  2  1  0
  2  3  2  0
  1  4  2  0
  4  5  1  0
  3  6  1  0
  5  7  2  0
  3  8  1  0
  7  8  1  0
  8  9  2  0
  6 10  2  0
  9 10  1  0
M  END
$$$$

     RDKit          3D

 10 10  0  0  0  0  0  0  0  0999 V2000
  139.0004  149.7631  140.3649 C   0  0  0  0  0  0  0  0  0  0  0  0
  139.7623  150.8543  140.7370 C   0  0  0  0  0  0  0  0  0  0  0  0
  139.2605  149.1459  139.1745 C   0  0  0  0  0  0  0  0  0  0  0  0
  139.5454  151.5142  142.0095 C   0  0  0  0  0  0  0  0  0  0  0  0
  138.4600  150.9915  142.6960 C   0  0  0  0  0  0  0  0  0  0  0  0
  137.9001  149.5381  141.2311 C   0  0  0  0  0  0  0  0  0  0  0  0
  136.9799  148.5381  140.6070 C   0  0  0  0  0  0  0  0  0  0  0  0
  138.2631  151.6531  144.1471 C   0  0  0  0  0  0  0  0  0  0  0  0
  136.9580  151.4855  144.6749 C   0  0  0  0  0  0  0  0  0  0  0  0
  137.6668  150.1074  142.3344 C   0  0  0  0  0  0  0  0  0  0  0  0
  1  2  2  0
  1  3  1  0
  2  4  1  0
  4  5  2  0
  1  6  1  0
  6  7  1  0
  5  8  1  0
  8  9  2  0
  5 10  1  0
  6 10  2  0
M  END
$$$$

     RDKit          3D

 10 11  0  0  0  0  0  0  0  0999 V2000
  139.2621  151.0929  142.4047 C   0  0  0  0  0  0  0  0  0  0  0  0
  138.8616  152.1308  142.9039 C   0  0  0  0  0  0  0  0  0  0  0  0
  137.9118  151.7982  143.7822 C   0  0  0  0  0  0  0  0  0  0  0  0
  138.8285  150.4008  141.6024 C   0  0  0  0  0  0  0  0  0  0  0  0
  137.6662  149.9534  141.7610 C   0  0  0  0  0  0  0  0  0  0  0  0
  137.5078  152.6004  144.9580 C   0  0  0  0  0  0  0  0  0  0  0  0
  136.7566  150.5976  142.5696 C   0  0  0  0  0  0  0  0  0  0  0  0
  136.8063  151.0760  143.5453 C   0  0  0  0  0  0  0  0  0  0  0  0
  135.7643  151.4080  144.5206 C   0  0  0  0  0  0  0  0  0  0  0  0
  136.2813  152.2915  145.4568 C   0  0  0  0  0  0  0  0  0  0  0  0
  1  2  1  0
  2  3  2  0
  1  4  2  0
  4  5  1  0
  3  6  1  0
  5  7  2  0
  3  8  1  0
  7  8  1  0
  8  9  2  0
  6 10  2  0
  9 10  1  0
M  END
$$$$

     RDKit          3D

 10 10  0  0  0  0  0  0  0  0999 V2000
  139.5348  150.8906  142.2305 C   0  0  0  0  0  0  0  0  0  0  0  0
  139.0139  150.3976  141.0574 C   0  0  0  0  0  0  0  0  0  0  0  0
  138.6965  150.9489  143.4028 C   0  0  0  0  0  0  0  0  0  0  0  0
  137.7130  149.9460  141.0427 C   0  0  0  0  0  0  0  0  0  0  0  0
  136.8197  150.0017  142.1509 C   0  0  0  0  0  0  0  0  0  0  0  0
  137.4312  150.6538  143.4113 C   0  0  0  0  0  0  0  0  0  0  0  0
  136.5522  150.8050  144.5730 C   0  0  0  0  0  0  0  0  0  0  0  0
  139.8944  150.4132  139.7605 C   0  0  0  0  0  0  0  0  0  0  0  0
  139.3278  150.3518  138.6012 C   0  0  0  0  0  0  0  0  0  0  0  0
  141.2296  150.5373  140.0332 C   0  0  0  0  0  0  0  0  0  0  0  0
  1  2  2  0
  1  3  1  0
  2  4  1  0
  4  5  2  0
  3  6  2  0
  5  6  1  0
  6  7  1  0
  2  8  1  0
  8  9  1  0
  8 10  2  0
M  END
$$$$

     RDKit          3D

 10 10  0  0  0  0  0  0  0  0999 V2000
  139.3427  149.9935  140.5880 C   0  0  0  0  0  0  0  0  0  0  0  0
  138.9528  149.9224  139.3656 C   0  0  0  0  0  0  0  0  0  0  0  0
  138.6122  150.1102  141.6416 C   0  0  0  0  0  0  0  0  0  0  0  0
  137.1910  149.8704  141.8331 C   0  0  0  0  0  0  0  0  0  0  0  0
  136.5134  149.7658  140.5812 C   0  0  0  0  0  0  0  0  0  0  0  0
  135.0824  149.6836  140.4151 C   0  0  0  0  0  0  0  0  0  0  0  0
  137.3625  149.7383  139.3133 C   0  0  0  0  0  0  0  0  0  0  0  0
  140.8265  150.4352  140.7099 C   0  0  0  0  0  0  0  0  0  0  0  0
  139.0664  150.3158  143.0053 C   0  0  0  0  0  0  0  0  0  0  0  0
  138.3707  151.0687  143.8822 C   0  0  0  0  0  0  0  0  0  0  0  0
  1  2  2  0
  1  3  1  0
  3  4  1  0
  4  5  2  0
  5  6  1  0
  2  7  1  0
  5  7  1  0
  1  8  1  0
  3  9  2  3
  9 10  1  0
M  END
$$$$

     RDKit          3D

 10 10  0  0  0  0  0  0  0  0999 V2000
  140.3036  150.2148  139.4783 Cl  0  0  0  0  0  0  0  0  0  0  0  0
  138.6783  150.1860  140.5319 C   0  0  0  0  0  0  0  0  0  0  0  0
  137.6385  149.3831  140.0945 C   0  0  0  0  0  0  0  0  0  0  0  0
  139.2417  150.7158  141.5756 C   0  0  0  0  0  0  0  0  0  0  0  0
  138.3592  151.0505  142.3777 C   0  0  0  0  0  0  0  0  0  0  0  0
  137.5069  148.8230  138.8349 C   0  0  0  0  0  0  0  0  0  0  0  0
  136.9965  150.6094  142.5121 C   0  0  0  0  0  0  0  0  0  0  0  0
  138.5367  151.7760  143.8925 C   0  0  0  0  0  0  0  0  0  0  0  0
  136.3419  150.1717  141.4259 C   0  0  0  0  0  0  0  0  0  0  0  0
  136.4581  149.4767  140.3265 C   0  0  0  0  0  0  0  0  0  0  0  0
  1  2  1  0
  2  3  1  0
  2  4  2  0
  4  5  1  0
  3  6  1  0
  5  7  2  0
  5  8  1  0
  7  9  1  0
  3 10  1  0
  9 10  2  0
M  END
$$$$

     RDKit          3D

 10 10  0  0  0  0  0  0  0  0999 V2000
  139.5348  150.8906  142.2305 C   0  0  0  0  0  0  0  0  0  0  0  0
  138.9997  151.9974  142.6382 C   0  0  0  0  0  0  0  0  0  0  0  0
  138.9554  149.6519  142.4266 C   0  0  0  0  0  0  0  0  0  0  0  0
  137.7538  151.8921  143.4337 C   0  0  0  0  0  0  0  0  0  0  0  0
  137.3041  153.0156  144.1120 C   0  0  0  0  0  0  0  0  0  0  0  0
  136.3827  152.7488  145.0837 C   0  0  0  0  0  0  0  0  0  0  0  0
  137.3487  150.4857  143.7615 C   0  0  0  0  0  0  0  0  0  0  0  0
  136.0349  151.5916  145.6314 C   0  0  0  0  0  0  0  0  0  0  0  0
  138.0914  149.3302  143.9008 C   0  0  0  0  0  0  0  0  0  0  0  0
  135.7813  154.0418  145.6556 C   0  0  0  0  0  0  0  0  0  0  0  0
  1  2  2  0
  1  3  1  0
  2  4  1  0
  4  5  1  0
  5  6  2  3
  4  7  2  0
  6  8  1  0
  3  9  2  0
  7  9  1  0
  6 10  1  0
M  END
$$$$

     RDKit          3D

 10 11  0  0  0  0  0  0  0  0999 V2000
  139.3427  149.9935  140.5880 C   0  0  0  0  0  0  0  0  0  0  0  0
  138.9528  149.9224  139.3656 C   0  0  0  0  0  0  0  0  0  0  0  0
  138.6122  150.1102  141.6416 C   0  0  0  0  0  0  0  0  0  0  0  0
  137.1910  149.8704  141.8331 C   0  0  0  0  0  0  0  0  0  0  0  0
  136.5134  149.7658  140.5812 C   0  0  0  0  0  0  0  0  0  0  0  0
  139.2015  150.3839  143.0731 C   0  0  0  0  0  0  0  0  0  0  0  0
  138.2641  150.9554  144.0719 C   0  0  0  0  0  0  0  0  0  0  0  0
  137.2338  149.6918  139.3064 C   0  0  0  0  0  0  0  0  0  0  0  0
  136.4464  150.0913  142.8453 N   0  0  0  0  0  0  0  0  0  0  0  0
  136.9301  150.6187  144.0128 C   0  0  0  0  0  0  0  0  0  0  0  0
  1  2  2  0
  1  3  1  0
  3  4  1  0
  4  5  2  0
  3  6  1  0
  6  7  2  0
  2  8  1  0
  5  8  1  0
  4  9  1  0
  7 10  1  0
  9 10  2  0
M  END
$$$$

     RDKit          3D

 10 11  0  0  0  0  0  0  0  0999 V2000
  139.3427  149.9935  140.5880 C   0  0  0  0  0  0  0  0  0  0  0  0
  138.9528  149.9224  139.3656 C   0  0  0  0  0  0  0  0  0  0  0  0
  138.6122  150.1102  141.6416 C   0  0  0  0  0  0  0  0  0  0  0  0
  137.1910  149.8704  141.8331 C   0  0  0  0  0  0  0  0  0  0  0  0
  136.5134  149.7658  140.5812 C   0  0  0  0  0  0  0  0  0  0  0  0
  139.2015  150.3839  143.0731 C   0  0  0  0  0  0  0  0  0  0  0  0
  138.2641  150.9554  144.0719 C   0  0  0  0  0  0  0  0  0  0  0  0
  137.2338  149.6918  139.3064 C   0  0  0  0  0  0  0  0  0  0  0  0
  136.4740  150.1460  142.9919 C   0  0  0  0  0  0  0  0  0  0  0  0
  137.0318  150.6362  144.0690 C   0  0  0  0  0  0  0  0  0  0  0  0
  1  2  2  0
  1  3  1  0
  3  4  1  0
  4  5  2  0
  3  6  1  0
  6  7  2  0
  2  8  1  0
  5  8  1  0
  4  9  1  0
  7 10  1  0
  9 10  2  0
M  END
$$$$

     RDKit          3D

 10 11  0  0  0  0  0  0  0  0999 V2000
  138.9705  151.3124  142.5681 C   0  0  0  0  0  0  0  0  0  0  0  0
  138.6057  152.0894  143.2653 C   0  0  0  0  0  0  0  0  0  0  0  0
  137.5209  151.8314  144.2019 C   0  0  0  0  0  0  0  0  0  0  0  0
  138.4515  149.8627  142.6446 C   0  0  0  0  0  0  0  0  0  0  0  0
  137.0534  152.8828  145.0294 C   0  0  0  0  0  0  0  0  0  0  0  0
  135.8671  152.9029  145.3789 C   0  0  0  0  0  0  0  0  0  0  0  0
  136.6514  150.7532  144.4544 C   0  0  0  0  0  0  0  0  0  0  0  0
  135.0643  151.7973  145.3438 C   0  0  0  0  0  0  0  0  0  0  0  0
  135.4571  150.6906  145.0019 C   0  0  0  0  0  0  0  0  0  0  0  0
  137.3946  149.5390  143.7683 C   0  0  0  0  0  0  0  0  0  0  0  0
  1  2  2  0
  2  3  1  0
  1  4  1  0
  3  5  1  0
  5  6  2  0
  3  7  2  0
  6  8  1  0
  7  9  1  0
  8  9  2  0
  4 10  1  0
  7 10  1  0
M  END
$$$$

     RDKit          3D

 10 10  0  0  0  0  0  0  0  0999 V2000
  138.9705  151.3124  142.5681 C   0  0  0  0  0  0  0  0  0  0  0  0
  138.6057  152.0894  143.2653 C   0  0  0  0  0  0  0  0  0  0  0  0
  137.5209  151.8314  144.2019 C   0  0  0  0  0  0  0  0  0  0  0  0
  136.5811  152.7823  144.6505 C   0  0  0  0  0  0  0  0  0  0  0  0
  135.5281  152.5971  145.5921 C   0  0  0  0  0  0  0  0  0  0  0  0
  135.4711  151.1567  145.9206 C   0  0  0  0  0  0  0  0  0  0  0  0
  137.0905  150.4921  144.7336 C   0  0  0  0  0  0  0  0  0  0  0  0
  136.2012  150.1844  145.5857 C   0  0  0  0  0  0  0  0  0  0  0  0
  139.4605  151.2202  141.5883 C   0  0  0  0  0  0  0  0  0  0  0  0
  139.3528  150.6859  140.1309 C   0  0  0  0  0  0  0  0  0  0  0  0
  1  2  2  3
  2  3  1  0
  3  4  1  0
  4  5  2  0
  5  6  1  0
  3  7  2  0
  6  8  2  0
  7  8  1  0
  1  9  1  0
  9 10  1  0
M  END
$$$$

     RDKit          3D

 10 10  0  0  0  0  0  0  0  0999 V2000
  138.7090  151.1469  142.6269 C   0  0  0  0  0  0  0  0  0  0  0  0
  138.5260  151.9370  143.5114 C   0  0  0  0  0  0  0  0  0  0  0  0
  137.3819  151.6579  144.3963 C   0  0  0  0  0  0  0  0  0  0  0  0
  136.7963  150.3652  144.3271 C   0  0  0  0  0  0  0  0  0  0  0  0
  138.1396  149.8530  142.3394 C   0  0  0  0  0  0  0  0  0  0  0  0
  138.4527  149.0564  141.3182 C   0  0  0  0  0  0  0  0  0  0  0  0
  137.0716  152.6696  145.4521 C   0  0  0  0  0  0  0  0  0  0  0  0
  137.1068  149.5608  143.3613 C   0  0  0  0  0  0  0  0  0  0  0  0
  135.7315  152.6202  145.9672 C   0  0  0  0  0  0  0  0  0  0  0  0
  135.1259  151.5926  146.2738 C   0  0  0  0  0  0  0  0  0  0  0  0
  1  2  1  0
  2  3  2  0
  3  4  1  0
  1  5  2  0
  5  6  1  0
  3  7  1  0
  4  8  2  0
  5  8  1  0
  7  9  1  0
  9 10  2  0
M  END
$$$$

     RDKit          3D

 10 10  0  0  0  0  0  0  0  0999 V2000
  139.0004  149.7631  140.3649 C   0  0  0  0  0  0  0  0  0  0  0  0
  138.7142  149.5451  139.1249 C   0  0  0  0  0  0  0  0  0  0  0  0
  138.1856  150.1072  141.2839 C   0  0  0  0  0  0  0  0  0  0  0  0
  137.3213  149.5926  138.6821 C   0  0  0  0  0  0  0  0  0  0  0  0
  136.9821  149.1480  137.4604 O   0  0  0  0  0  0  0  0  0  0  0  0
  136.5137  149.8415  139.7487 C   0  0  0  0  0  0  0  0  0  0  0  0
  136.7936  150.1430  141.0177 C   0  0  0  0  0  0  0  0  0  0  0  0
  138.5756  150.5119  142.7151 C   0  0  0  0  0  0  0  0  0  0  0  0
  137.6788  150.5613  143.7547 C   0  0  0  0  0  0  0  0  0  0  0  0
  137.4796  151.8754  144.4386 C   0  0  0  0  0  0  0  0  0  0  0  0
  1  2  2  0
  1  3  1  0
  2  4  1  0
  4  5  2  0
  4  6  1  0
  3  7  1  0
  6  7  2  0
  3  8  1  0
  8  9  1  0
  9 10  1  0
M  END
$$$$

     RDKit          3D

 10 10  0  0  0  0  0  0  0  0999 V2000
  138.7236  151.5756  143.3190 C   0  0  0  0  0  0  0  0  0  0  0  0
  137.9189  152.3262  143.7538 C   0  0  0  0  0  0  0  0  0  0  0  0
  136.7533  151.7852  144.4573 C   0  0  0  0  0  0  0  0  0  0  0  0
  138.5774  150.7784  142.3589 C   0  0  0  0  0  0  0  0  0  0  0  0
  137.2450  150.1180  142.4701 C   0  0  0  0  0  0  0  0  0  0  0  0
  136.7126  149.1947  141.6071 C   0  0  0  0  0  0  0  0  0  0  0  0
  136.3715  150.6579  143.5307 C   0  0  0  0  0  0  0  0  0  0  0  0
  135.8148  152.3774  145.2728 C   0  0  0  0  0  0  0  0  0  0  0  0
  134.8807  151.6302  145.8660 C   0  0  0  0  0  0  0  0  0  0  0  0
  135.9602  153.3665  145.4456 O   0  0  0  0  0  0  0  0  0  0  0  0
  1  2  1  0
  2  3  2  0
  1  4  2  0
  4  5  1  0
  5  6  1  0
  3  7  1  0
  5  7  2  0
  3  8  1  0
  8  9  1  0
  8 10  2  0
M  END
$$$$

     RDKit          3D

 10 10  0  0  0  0  0  0  0  0999 V2000
  140.3036  150.2148  139.4783 Cl  0  0  0  0  0  0  0  0  0  0  0  0
  138.6783  150.1860  140.5319 C   0  0  0  0  0  0  0  0  0  0  0  0
  137.6385  149.3831  140.0945 C   0  0  0  0  0  0  0  0  0  0  0  0
  139.2417  150.7158  141.5756 C   0  0  0  0  0  0  0  0  0  0  0  0
  138.3592  151.0505  142.3777 C   0  0  0  0  0  0  0  0  0  0  0  0
  137.5069  148.8230  138.8349 C   0  0  0  0  0  0  0  0  0  0  0  0
  136.9965  150.6094  142.5121 C   0  0  0  0  0  0  0  0  0  0  0  0
  138.5367  151.7760  143.8925 C   0  0  0  0  0  0  0  0  0  0  0  0
  136.3419  150.1717  141.4259 C   0  0  0  0  0  0  0  0  0  0  0  0
  136.4581  149.4767  140.3265 C   0  0  0  0  0  0  0  0  0  0  0  0
  1  2  1  0
  2  3  1  0
  2  4  2  0
  4  5  1  0
  3  6  1  0
  5  7  2  0
  5  8  1  0
  7  9  1  0
  3 10  2  0
  9 10  1  0
M  END
$$$$

     RDKit          3D

 10 10  0  0  0  0  0  0  0  0999 V2000
  139.2621  151.0929  142.4047 C   0  0  0  0  0  0  0  0  0  0  0  0
  138.8616  152.1308  142.9039 C   0  0  0  0  0  0  0  0  0  0  0  0
  137.9118  151.7982  143.7822 C   0  0  0  0  0  0  0  0  0  0  0  0
  138.8285  150.4008  141.6024 C   0  0  0  0  0  0  0  0  0  0  0  0
  137.4396  150.0031  142.0975 C   0  0  0  0  0  0  0  0  0  0  0  0
  137.4534  152.5394  144.9337 C   0  0  0  0  0  0  0  0  0  0  0  0
  136.9501  150.7413  143.2095 C   0  0  0  0  0  0  0  0  0  0  0  0
  136.1262  152.5735  145.3134 C   0  0  0  0  0  0  0  0  0  0  0  0
  135.2368  153.1295  144.7270 O   0  0  0  0  0  0  0  0  0  0  0  0
  135.7370  151.9844  146.4631 O   0  0  0  0  0  0  0  0  0  0  0  0
  1  2  1  0
  2  3  2  0
  1  4  2  0
  4  5  1  0
  3  6  1  0
  3  7  1  0
  5  7  2  0
  6  8  1  0
  8  9  2  0
  8 10  1  0
M  END
$$$$

     RDKit          3D

 10 10  0  0  0  0  0  0  0  0999 V2000
  140.3036  150.2148  139.4783 Cl  0  0  0  0  0  0  0  0  0  0  0  0
  138.6783  150.1860  140.5319 C   0  0  0  0  0  0  0  0  0  0  0  0
  137.6385  149.3831  140.0945 C   0  0  0  0  0  0  0  0  0  0  0  0
  139.2417  150.7158  141.5756 C   0  0  0  0  0  0  0  0  0  0  0  0
  138.3592  151.0505  142.3777 C   0  0  0  0  0  0  0  0  0  0  0  0
  137.5069  148.8230  138.8349 C   0  0  0  0  0  0  0  0  0  0  0  0
  136.9965  150.6094  142.5121 C   0  0  0  0  0  0  0  0  0  0  0  0
  138.6031  151.9300  143.8032 C   0  0  0  0  0  0  0  0  0  0  0  0
  136.3571  150.1051  141.4443 C   0  0  0  0  0  0  0  0  0  0  0  0
  136.4474  149.4615  140.3894 C   0  0  0  0  0  0  0  0  0  0  0  0
  1  2  1  0
  2  3  1  0
  2  4  2  0
  4  5  1  0
  3  6  1  0
  5  7  2  0
  5  8  1  0
  7  9  1  0
  3 10  1  0
  9 10  1  0
M  END
$$$$

     RDKit          3D

 10 11  0  0  0  0  0  0  0  0999 V2000
  138.7236  151.5756  143.3190 C   0  0  0  0  0  0  0  0  0  0  0  0
  137.9189  152.3262  143.7538 C   0  0  0  0  0  0  0  0  0  0  0  0
  136.7533  151.7852  144.4573 C   0  0  0  0  0  0  0  0  0  0  0  0
  136.8351  150.4435  144.7144 C   0  0  0  0  0  0  0  0  0  0  0  0
  138.7274  150.3736  143.0180 C   0  0  0  0  0  0  0  0  0  0  0  0
  135.9800  149.8157  145.6775 C   0  0  0  0  0  0  0  0  0  0  0  0
  135.6744  152.2838  145.0180 C   0  0  0  0  0  0  0  0  0  0  0  0
  135.4404  152.3592  146.3074 C   0  0  0  0  0  0  0  0  0  0  0  0
  135.2366  150.8803  146.7329 C   0  0  0  0  0  0  0  0  0  0  0  0
  137.8360  149.5537  143.9237 C   0  0  0  0  0  0  0  0  0  0  0  0
  1  2  1  0
  2  3  2  0
  3  4  1  0
  1  5  2  0
  4  6  1  0
  3  7  1  0
  7  8  1  0
  6  9  1  0
  8  9  1  0
  4 10  2  0
  5 10  1  0
M  END
$$$$

     RDKit          3D

 10 10  0  0  0  0  0  0  0  0999 V2000
  139.0004  149.7631  140.3649 C   0  0  0  0  0  0  0  0  0  0  0  0
  138.7142  149.5451  139.1249 C   0  0  0  0  0  0  0  0  0  0  0  0
  138.1856  150.1072  141.2839 C   0  0  0  0  0  0  0  0  0  0  0  0
  137.3213  149.5926  138.6821 C   0  0  0  0  0  0  0  0  0  0  0  0
  136.3776  149.8122  139.7323 C   0  0  0  0  0  0  0  0  0  0  0  0
  138.6498  150.4524  142.6761 C   0  0  0  0  0  0  0  0  0  0  0  0
  137.8095  150.9703  143.6446 C   0  0  0  0  0  0  0  0  0  0  0  0
  134.9539  149.9121  139.4569 O   0  0  0  0  0  0  0  0  0  0  0  0
  136.7217  150.1248  141.0322 C   0  0  0  0  0  0  0  0  0  0  0  0
  138.4208  151.5624  144.8708 C   0  0  0  0  0  0  0  0  0  0  0  0
  1  2  2  0
  1  3  1  0
  2  4  1  0
  4  5  2  0
  3  6  1  0
  6  7  2  3
  5  8  1  0
  3  9  2  0
  5  9  1  0
  7 10  1  0
M  END
$$$$

     RDKit          3D

 10 11  0  0  0  0  0  0  0  0999 V2000
  138.7236  151.5756  143.3190 C   0  0  0  0  0  0  0  0  0  0  0  0
  137.9189  152.3262  143.7538 C   0  0  0  0  0  0  0  0  0  0  0  0
  136.7533  151.7852  144.4573 C   0  0  0  0  0  0  0  0  0  0  0  0
  136.8351  150.4435  144.7144 C   0  0  0  0  0  0  0  0  0  0  0  0
  138.7274  150.3736  143.0180 C   0  0  0  0  0  0  0  0  0  0  0  0
  135.9800  149.8157  145.6775 C   0  0  0  0  0  0  0  0  0  0  0  0
  135.6744  152.2838  145.0180 C   0  0  0  0  0  0  0  0  0  0  0  0
  135.4404  152.3592  146.3074 C   0  0  0  0  0  0  0  0  0  0  0  0
  137.7663  149.7376  143.9244 C   0  0  0  0  0  0  0  0  0  0  0  0
  135.3177  150.8472  146.4182 C   0  0  0  0  0  0  0  0  0  0  0  0
  1  2  1  0
  2  3  2  0
  3  4  1  0
  1  5  2  0
  4  6  1  0
  3  7  1  0
  7  8  1  0
  4  9  2  0
  5  9  1  0
  6 10  2  0
  8 10  2  0
M  END
$$$$

     RDKit          3D

 10 11  0  0  0  0  0  0  0  0999 V2000
  140.3036  150.2148  139.4783 Cl  0  0  0  0  0  0  0  0  0  0  0  0
  138.6783  150.1860  140.5319 C   0  0  0  0  0  0  0  0  0  0  0  0
  137.6385  149.3831  140.0945 C   0  0  0  0  0  0  0  0  0  0  0  0
  138.7505  150.9487  141.6715 C   0  0  0  0  0  0  0  0  0  0  0  0
  136.5606  149.6034  140.7973 C   0  0  0  0  0  0  0  0  0  0  0  0
  136.3933  150.3970  141.9259 C   0  0  0  0  0  0  0  0  0  0  0  0
  135.1767  150.5746  142.7425 C   0  0  0  0  0  0  0  0  0  0  0  0
  135.6228  151.2741  143.9969 C   0  0  0  0  0  0  0  0  0  0  0  0
  137.0251  151.5065  144.1056 C   0  0  0  0  0  0  0  0  0  0  0  0
  137.7673  151.0775  142.8812 C   0  0  0  0  0  0  0  0  0  0  0  0
  1  2  1  0
  2  3  2  0
  2  4  1  0
  3  5  1  0
  5  6  2  0
  6  7  1  0
  7  8  2  0
  8  9  1  0
  4 10  1  0
  6 10  1  0
  9 10  2  0
M  END
$$$$

     RDKit          3D

 10 11  0  0  0  0  0  0  0  0999 V2000
  138.7090  151.1469  142.6269 C   0  0  0  0  0  0  0  0  0  0  0  0
  138.5260  151.9370  143.5114 C   0  0  0  0  0  0  0  0  0  0  0  0
  137.3819  151.6579  144.3963 C   0  0  0  0  0  0  0  0  0  0  0  0
  139.7051  151.1184  141.6077 C   0  0  0  0  0  0  0  0  0  0  0  0
  139.4637  150.8262  140.3138 C   0  0  0  0  0  0  0  0  0  0  0  0
  138.1443  150.1615  140.2328 C   0  0  0  0  0  0  0  0  0  0  0  0
  137.8478  149.6487  138.8336 C   0  0  0  0  0  0  0  0  0  0  0  0
  137.2643  149.9895  141.3145 C   0  0  0  0  0  0  0  0  0  0  0  0
  137.6674  150.2713  142.6982 C   0  0  0  0  0  0  0  0  0  0  0  0
  136.9958  150.3232  143.8502 N   0  0  0  0  0  0  0  0  0  0  0  0
  1  2  1  0
  2  3  2  0
  1  4  1  0
  4  5  2  0
  5  6  1  0
  6  7  1  0
  6  8  2  0
  1  9  2  0
  8  9  1  0
  3 10  1  0
  9 10  1  0
M  END
$$$$

     RDKit          3D

 10 11  0  0  0  0  0  0  0  0999 V2000
  138.7090  151.1469  142.6269 C   0  0  0  0  0  0  0  0  0  0  0  0
  138.5260  151.9370  143.5114 C   0  0  0  0  0  0  0  0  0  0  0  0
  137.3819  151.6579  144.3963 C   0  0  0  0  0  0  0  0  0  0  0  0
  139.7051  151.1184  141.6077 C   0  0  0  0  0  0  0  0  0  0  0  0
  136.7072  150.4347  144.0265 C   0  0  0  0  0  0  0  0  0  0  0  0
  139.4496  150.8400  140.3164 C   0  0  0  0  0  0  0  0  0  0  0  0
  138.1688  150.1903  140.1998 C   0  0  0  0  0  0  0  0  0  0  0  0
  137.2447  149.9095  141.0994 C   0  0  0  0  0  0  0  0  0  0  0  0
  137.5037  150.4497  142.4724 C   0  0  0  0  0  0  0  0  0  0  0  0
  136.9127  152.2272  145.6397 C   0  0  0  0  0  0  0  0  0  0  0  0
  1  2  1  0
  2  3  2  0
  1  4  1  0
  3  5  1  0
  4  6  2  0
  6  7  1  0
  7  8  2  0
  1  9  2  0
  5  9  1  0
  8  9  1  0
  3 10  1  0
M  END
$$$$

     RDKit          3D

 10 10  0  0  0  0  0  0  0  0999 V2000
  139.2621  151.0929  142.4047 C   0  0  0  0  0  0  0  0  0  0  0  0
  138.8616  152.1308  142.9039 C   0  0  0  0  0  0  0  0  0  0  0  0
  137.7831  151.8921  143.8937 C   0  0  0  0  0  0  0  0  0  0  0  0
  137.3591  150.5405  144.0623 C   0  0  0  0  0  0  0  0  0  0  0  0
  136.3238  150.4648  145.1225 C   0  0  0  0  0  0  0  0  0  0  0  0
  139.7269  151.0837  140.8943 C   0  0  0  0  0  0  0  0  0  0  0  0
  135.7744  151.4810  145.5064 C   0  0  0  0  0  0  0  0  0  0  0  0
  137.0288  152.8283  144.5638 C   0  0  0  0  0  0  0  0  0  0  0  0
  136.0907  152.7056  145.4540 C   0  0  0  0  0  0  0  0  0  0  0  0
  135.3125  153.9078  146.0412 C   0  0  0  0  0  0  0  0  0  0  0  0
  1  2  1  0
  2  3  2  3
  3  4  1  0
  4  5  2  0
  1  6  1  0
  5  7  1  0
  3  8  1  0
  7  9  2  0
  8  9  1  0
  9 10  1  0
M  END
$$$$

     RDKit          3D

 11 12  0  0  0  0  0  0  0  0999 V2000
  140.3036  150.2148  139.4783 Cl  0  0  0  0  0  0  0  0  0  0  0  0
  138.6783  150.1860  140.5319 C   0  0  0  0  0  0  0  0  0  0  0  0
  137.6385  149.3831  140.0945 C   0  0  0  0  0  0  0  0  0  0  0  0
  139.0332  150.8824  141.6179 C   0  0  0  0  0  0  0  0  0  0  0  0
  136.4856  149.4719  141.0089 C   0  0  0  0  0  0  0  0  0  0  0  0
  136.6941  150.4320  141.9099 C   0  0  0  0  0  0  0  0  0  0  0  0
  135.4560  150.7034  142.8865 C   0  0  0  0  0  0  0  0  0  0  0  0
  135.9662  151.2424  144.1646 C   0  0  0  0  0  0  0  0  0  0  0  0
  137.9156  151.0234  142.4329 C   0  0  0  0  0  0  0  0  0  0  0  0
  138.0711  151.7189  143.7547 C   0  0  0  0  0  0  0  0  0  0  0  0
  137.0762  151.7715  144.5935 C   0  0  0  0  0  0  0  0  0  0  0  0
  1  2  1  0
  2  3  2  0
  2  4  1  0
  3  5  1  0
  5  6  2  0
  6  7  1  0
  7  8  2  0
  4  9  2  0
  6  9  1  0
  9 10  1  0
  8 11  1  0
 10 11  2  0
M  END
$$$$

     RDKit          3D

 11 12  0  0  0  0  0  0  0  0999 V2000
  139.3427  149.9935  140.5880 C   0  0  0  0  0  0  0  0  0  0  0  0
  138.9528  149.9224  139.3656 C   0  0  0  0  0  0  0  0  0  0  0  0
  138.6122  150.1102  141.6416 C   0  0  0  0  0  0  0  0  0  0  0  0
  137.1910  149.8704  141.8331 C   0  0  0  0  0  0  0  0  0  0  0  0
  136.5134  149.7658  140.5812 C   0  0  0  0  0  0  0  0  0  0  0  0
  139.2015  150.3839  143.0731 C   0  0  0  0  0  0  0  0  0  0  0  0
  138.2641  150.9554  144.0719 C   0  0  0  0  0  0  0  0  0  0  0  0
  139.6581  149.8770  138.1577 C   0  0  0  0  0  0  0  0  0  0  0  0
  137.3554  149.7327  139.2870 C   0  0  0  0  0  0  0  0  0  0  0  0
  136.4798  150.0856  142.7827 N   0  0  0  0  0  0  0  0  0  0  0  0
  137.0296  150.6660  143.9288 C   0  0  0  0  0  0  0  0  0  0  0  0
  1  2  2  0
  1  3  1  0
  3  4  1  0
  4  5  2  0
  3  6  1  0
  6  7  2  0
  2  8  1  0
  2  9  1  0
  5  9  1  0
  4 10  1  0
  7 11  1  0
 10 11  2  0
M  END
$$$$

     RDKit          3D

 11 12  0  0  0  0  0  0  0  0999 V2000
  140.3036  150.2148  139.4783 Cl  0  0  0  0  0  0  0  0  0  0  0  0
  138.6783  150.1860  140.5319 C   0  0  0  0  0  0  0  0  0  0  0  0
  137.6385  149.3831  140.0945 C   0  0  0  0  0  0  0  0  0  0  0  0
  138.7505  150.9487  141.6715 C   0  0  0  0  0  0  0  0  0  0  0  0
  136.5606  149.6034  140.7973 C   0  0  0  0  0  0  0  0  0  0  0  0
  136.3933  150.3970  141.9259 C   0  0  0  0  0  0  0  0  0  0  0  0
  135.1767  150.5746  142.7425 C   0  0  0  0  0  0  0  0  0  0  0  0
  135.6228  151.2741  143.9969 C   0  0  0  0  0  0  0  0  0  0  0  0
  137.6512  151.0378  142.4402 C   0  0  0  0  0  0  0  0  0  0  0  0
  134.6715  151.5985  145.0540 C   0  0  0  0  0  0  0  0  0  0  0  0
  137.0561  151.6519  144.1868 C   0  0  0  0  0  0  0  0  0  0  0  0
  1  2  1  0
  2  3  2  0
  2  4  1  0
  3  5  1  0
  5  6  2  0
  6  7  1  0
  7  8  2  0
  4  9  2  0
  6  9  1  0
  8 10  1  0
  8 11  1  0
  9 11  1  0
M  END
$$$$

     RDKit          3D

 11 12  0  0  0  0  0  0  0  0999 V2000
  139.2621  151.0929  142.4047 C   0  0  0  0  0  0  0  0  0  0  0  0
  138.8616  152.1308  142.9039 C   0  0  0  0  0  0  0  0  0  0  0  0
  137.7831  151.8921  143.8937 C   0  0  0  0  0  0  0  0  0  0  0  0
  138.6293  149.7793  142.4951 C   0  0  0  0  0  0  0  0  0  0  0  0
  137.6232  149.6974  143.4793 C   0  0  0  0  0  0  0  0  0  0  0  0
  137.3768  153.1151  144.6927 C   0  0  0  0  0  0  0  0  0  0  0  0
  136.1205  153.0622  145.3870 C   0  0  0  0  0  0  0  0  0  0  0  0
  135.4238  151.9283  145.3161 C   0  0  0  0  0  0  0  0  0  0  0  0
  134.3548  151.7346  146.2131 C   0  0  0  0  0  0  0  0  0  0  0  0
  137.1678  150.6994  144.1825 C   0  0  0  0  0  0  0  0  0  0  0  0
  135.8122  150.7204  144.6396 C   0  0  0  0  0  0  0  0  0  0  0  0
  1  2  1  0
  2  3  2  0
  1  4  2  0
  4  5  1  0
  3  6  1  0
  6  7  2  0
  7  8  1  0
  8  9  1  0
  3 10  1  0
  5 10  2  0
  8 11  2  0
 10 11  1  0
M  END
$$$$

     RDKit          3D

 11 10  0  0  0  0  0  0  0  0999 V2000
  139.5348  150.8906  142.2305 C   0  0  0  0  0  0  0  0  0  0  0  0
  139.0139  150.3976  141.0574 C   0  0  0  0  0  0  0  0  0  0  0  0
  138.6965  150.9489  143.4028 C   0  0  0  0  0  0  0  0  0  0  0  0
  137.7130  149.9460  141.0427 C   0  0  0  0  0  0  0  0  0  0  0  0
  137.5183  150.9374  143.4785 C   0  0  0  0  0  0  0  0  0  0  0  0
  136.6733  151.1274  144.6812 C   0  0  0  0  0  0  0  0  0  0  0  0
  139.8472  150.3901  139.8637 C   0  0  0  0  0  0  0  0  0  0  0  0
  135.5811  151.9101  144.4971 C   0  0  0  0  0  0  0  0  0  0  0  0
  134.7628  152.3266  145.7390 C   0  0  0  0  0  0  0  0  0  0  0  0
  137.1441  149.4795  139.8648 C   0  0  0  0  0  0  0  0  0  0  0  0
  135.7648  149.1515  139.8781 C   0  0  0  0  0  0  0  0  0  0  0  0
  1  2  2  3
  1  3  1  0
  2  4  1  0
  3  5  2  3
  5  6  1  0
  2  7  1  0
  6  8  1  0
  8  9  1  0
  4 10  2  3
 10 11  1  0
M  END
$$$$

     RDKit          3D

 11 12  0  0  0  0  0  0  0  0999 V2000
  139.5348  150.8906  142.2305 C   0  0  0  0  0  0  0  0  0  0  0  0
  138.9997  151.9974  142.6382 C   0  0  0  0  0  0  0  0  0  0  0  0
  138.9554  149.6519  142.4266 C   0  0  0  0  0  0  0  0  0  0  0  0
  137.7538  151.8921  143.4337 C   0  0  0  0  0  0  0  0  0  0  0  0
  137.3041  153.0156  144.1120 C   0  0  0  0  0  0  0  0  0  0  0  0
  136.1179  152.8751  145.0022 C   0  0  0  0  0  0  0  0  0  0  0  0
  137.4049  150.4987  143.8252 C   0  0  0  0  0  0  0  0  0  0  0  0
  135.4900  154.0855  145.4887 C   0  0  0  0  0  0  0  0  0  0  0  0
  136.3962  150.4366  144.8361 C   0  0  0  0  0  0  0  0  0  0  0  0
  135.6497  151.5443  145.3834 C   0  0  0  0  0  0  0  0  0  0  0  0
  137.9279  149.4959  143.3182 N   0  0  0  0  0  0  0  0  0  0  0  0
  1  2  2  0
  1  3  1  0
  2  4  1  0
  4  5  1  0
  5  6  2  0
  4  7  2  0
  6  8  1  0
  7  9  1  0
  6 10  1  0
  9 10  2  0
  3 11  2  0
  7 11  1  0
M  END
$$$$

     RDKit          3D

 11 11  0  0  0  0  0  0  0  0999 V2000
  138.7090  151.1469  142.6269 C   0  0  0  0  0  0  0  0  0  0  0  0
  138.5260  151.9370  143.5114 C   0  0  0  0  0  0  0  0  0  0  0  0
  137.3819  151.6579  144.3963 C   0  0  0  0  0  0  0  0  0  0  0  0
  139.7051  151.1184  141.6077 C   0  0  0  0  0  0  0  0  0  0  0  0
  136.7557  152.5772  145.3074 C   0  0  0  0  0  0  0  0  0  0  0  0
  139.6288  150.4580  140.3315 C   0  0  0  0  0  0  0  0  0  0  0  0
  138.4571  149.6004  140.4454 C   0  0  0  0  0  0  0  0  0  0  0  0
  135.4568  152.3937  145.7654 C   0  0  0  0  0  0  0  0  0  0  0  0
  137.5807  149.8923  141.3497 C   0  0  0  0  0  0  0  0  0  0  0  0
  140.5769  150.5648  139.3519 C   0  0  0  0  0  0  0  0  0  0  0  0
  137.6049  150.4118  142.2445 C   0  0  0  0  0  0  0  0  0  0  0  0
  1  2  1  0
  2  3  2  3
  1  4  1  0
  3  5  1  0
  4  6  2  0
  6  7  1  0
  5  8  1  0
  7  9  2  0
  6 10  1  0
  1 11  2  0
  9 11  1  0
M  END
$$$$

     RDKit          3D

 11 11  0  0  0  0  0  0  0  0999 V2000
  140.3036  150.2148  139.4783 Cl  0  0  0  0  0  0  0  0  0  0  0  0
  138.6783  150.1860  140.5319 C   0  0  0  0  0  0  0  0  0  0  0  0
  137.6385  149.3831  140.0945 C   0  0  0  0  0  0  0  0  0  0  0  0
  136.4392  149.4569  140.8209 C   0  0  0  0  0  0  0  0  0  0  0  0
  138.9819  150.6978  141.6811 C   0  0  0  0  0  0  0  0  0  0  0  0
  136.5079  150.3497  141.8163 C   0  0  0  0  0  0  0  0  0  0  0  0
  135.2761  150.6086  142.7157 C   0  0  0  0  0  0  0  0  0  0  0  0
  137.7146  150.9262  142.4183 C   0  0  0  0  0  0  0  0  0  0  0  0
  135.4580  150.8003  144.0662 C   0  0  0  0  0  0  0  0  0  0  0  0
  134.9364  151.2640  144.9815 C   0  0  0  0  0  0  0  0  0  0  0  0
  135.6466  151.6589  146.2343 C   0  0  0  0  0  0  0  0  0  0  0  0
  1  2  1  0
  2  3  2  0
  3  4  1  0
  2  5  1  0
  4  6  2  0
  6  7  1  0
  5  8  2  0
  6  8  1  0
  7  9  2  3
  9 10  1  0
 10 11  1  0
M  END
$$$$

     RDKit          3D

 11 12  0  0  0  0  0  0  0  0999 V2000
  139.0004  149.7631  140.3649 C   0  0  0  0  0  0  0  0  0  0  0  0
  138.7142  149.5451  139.1249 C   0  0  0  0  0  0  0  0  0  0  0  0
  138.1856  150.1072  141.2839 C   0  0  0  0  0  0  0  0  0  0  0  0
  137.3213  149.5926  138.6821 C   0  0  0  0  0  0  0  0  0  0  0  0
  136.3776  149.8122  139.7323 C   0  0  0  0  0  0  0  0  0  0  0  0
  138.6498  150.4524  142.6761 C   0  0  0  0  0  0  0  0  0  0  0  0
  137.8095  150.9703  143.6446 C   0  0  0  0  0  0  0  0  0  0  0  0
  134.9539  149.9121  139.4569 O   0  0  0  0  0  0  0  0  0  0  0  0
  136.7217  150.1248  141.0322 C   0  0  0  0  0  0  0  0  0  0  0  0
  136.5074  150.9642  143.6300 C   0  0  0  0  0  0  0  0  0  0  0  0
  135.8263  150.6180  142.3094 C   0  0  0  0  0  0  0  0  0  0  0  0
  1  2  2  0
  1  3  1  0
  2  4  1  0
  4  5  2  0
  3  6  1  0
  6  7  2  0
  5  8  1  0
  3  9  2  0
  5  9  1  0
  7 10  1  0
  9 11  1  0
 10 11  2  0
M  END
$$$$

     RDKit          3D

 11 11  0  0  0  0  0  0  0  0999 V2000
  140.3036  150.2148  139.4783 Cl  0  0  0  0  0  0  0  0  0  0  0  0
  138.6783  150.1860  140.5319 C   0  0  0  0  0  0  0  0  0  0  0  0
  137.6385  149.3831  140.0945 C   0  0  0  0  0  0  0  0  0  0  0  0
  138.7505  150.9487  141.6715 C   0  0  0  0  0  0  0  0  0  0  0  0
  136.4550  149.4179  140.9244 C   0  0  0  0  0  0  0  0  0  0  0  0
  137.6737  150.9641  142.5334 C   0  0  0  0  0  0  0  0  0  0  0  0
  137.7393  151.6894  143.7851 C   0  0  0  0  0  0  0  0  0  0  0  0
  136.5326  150.3454  142.1357 C   0  0  0  0  0  0  0  0  0  0  0  0
  136.6809  151.4847  144.7315 C   0  0  0  0  0  0  0  0  0  0  0  0
  136.4095  150.4746  145.2767 C   0  0  0  0  0  0  0  0  0  0  0  0
  135.8635  152.4659  144.9773 C   0  0  0  0  0  0  0  0  0  0  0  0
  1  2  1  0
  2  3  2  0
  2  4  1  0
  3  5  1  0
  4  6  2  0
  6  7  1  0
  5  8  2  0
  6  8  1  0
  7  9  1  0
  9 10  2  0
  9 11  1  0
M  END
$$$$

     RDKit          3D

 11 12  0  0  0  0  0  0  0  0999 V2000
  139.3427  149.9935  140.5880 C   0  0  0  0  0  0  0  0  0  0  0  0
  138.9528  149.9224  139.3656 C   0  0  0  0  0  0  0  0  0  0  0  0
  138.6122  150.1102  141.6416 C   0  0  0  0  0  0  0  0  0  0  0  0
  137.5740  149.8706  139.0588 C   0  0  0  0  0  0  0  0  0  0  0  0
  137.1494  149.9724  141.5205 C   0  0  0  0  0  0  0  0  0  0  0  0
  136.2695  150.1338  142.6387 C   0  0  0  0  0  0  0  0  0  0  0  0
  136.6228  149.8862  140.0939 C   0  0  0  0  0  0  0  0  0  0  0  0
  136.8108  151.0574  143.5764 C   0  0  0  0  0  0  0  0  0  0  0  0
  138.1115  151.3300  143.7236 C   0  0  0  0  0  0  0  0  0  0  0  0
  138.8814  150.5500  142.9590 C   0  0  0  0  0  0  0  0  0  0  0  0
  135.8748  151.6873  144.3540 O   0  0  0  0  0  0  0  0  0  0  0  0
  1  2  2  0
  1  3  1  0
  2  4  1  0
  3  5  2  0
  5  6  1  0
  4  7  2  0
  5  7  1  0
  6  8  1  0
  8  9  1  0
  3 10  1  0
  9 10  2  0
  8 11  2  0
M  END
$$$$

     RDKit          3D

 11 12  0  0  0  0  0  0  0  0999 V2000
  139.2621  151.0929  142.4047 C   0  0  0  0  0  0  0  0  0  0  0  0
  138.8616  152.1308  142.9039 C   0  0  0  0  0  0  0  0  0  0  0  0
  137.9118  151.7982  143.7822 C   0  0  0  0  0  0  0  0  0  0  0  0
  138.8285  150.4008  141.6024 C   0  0  0  0  0  0  0  0  0  0  0  0
  137.6662  149.9534  141.7610 C   0  0  0  0  0  0  0  0  0  0  0  0
  137.5078  152.6004  144.9580 C   0  0  0  0  0  0  0  0  0  0  0  0
  136.7566  150.5976  142.5696 C   0  0  0  0  0  0  0  0  0  0  0  0
  135.2516  150.0192  142.1955 C   0  0  0  0  0  0  0  0  0  0  0  0
  136.6977  151.1243  143.4663 C   0  0  0  0  0  0  0  0  0  0  0  0
  136.1634  152.6681  145.2550 C   0  0  0  0  0  0  0  0  0  0  0  0
  135.6666  151.3376  144.4052 C   0  0  0  0  0  0  0  0  0  0  0  0
  1  2  1  0
  2  3  2  0
  1  4  2  0
  4  5  1  0
  3  6  1  0
  5  7  2  0
  7  8  1  0
  3  9  1  0
  7  9  1  0
  6 10  1  0
  9 11  1  0
 10 11  1  0
M  END
$$$$

     RDKit          3D

 11 11  0  0  0  0  0  0  0  0999 V2000
  138.9705  151.3124  142.5681 C   0  0  0  0  0  0  0  0  0  0  0  0
  138.6057  152.0894  143.2653 C   0  0  0  0  0  0  0  0  0  0  0  0
  137.5209  151.8314  144.2019 C   0  0  0  0  0  0  0  0  0  0  0  0
  136.5811  152.7823  144.6505 C   0  0  0  0  0  0  0  0  0  0  0  0
  135.5281  152.5971  145.5921 C   0  0  0  0  0  0  0  0  0  0  0  0
  135.4711  151.1567  145.9206 C   0  0  0  0  0  0  0  0  0  0  0  0
  137.0945  150.5142  144.7085 C   0  0  0  0  0  0  0  0  0  0  0  0
  134.4170  150.8677  146.9228 C   0  0  0  0  0  0  0  0  0  0  0  0
  136.1930  150.1359  145.5565 C   0  0  0  0  0  0  0  0  0  0  0  0
  139.5104  151.5234  141.1902 C   0  0  0  0  0  0  0  0  0  0  0  0
  139.5523  150.5024  140.3268 C   0  0  0  0  0  0  0  0  0  0  0  0
  1  2  2  3
  2  3  1  0
  3  4  1  0
  4  5  2  0
  5  6  1  0
  3  7  2  0
  6  8  1  0
  6  9  2  0
  7  9  1  0
  1 10  1  0
 10 11  1  0
M  END
$$$$

     RDKit          3D

 11 12  0  0  0  0  0  0  0  0999 V2000
  139.2621  151.0929  142.4047 C   0  0  0  0  0  0  0  0  0  0  0  0
  138.8616  152.1308  142.9039 C   0  0  0  0  0  0  0  0  0  0  0  0
  137.9118  151.7982  143.7822 C   0  0  0  0  0  0  0  0  0  0  0  0
  138.8285  150.4008  141.6024 C   0  0  0  0  0  0  0  0  0  0  0  0
  137.6662  149.9534  141.7610 C   0  0  0  0  0  0  0  0  0  0  0  0
  137.5078  152.6004  144.9580 C   0  0  0  0  0  0  0  0  0  0  0  0
  136.7566  150.5976  142.5696 C   0  0  0  0  0  0  0  0  0  0  0  0
  135.2516  150.0192  142.1955 C   0  0  0  0  0  0  0  0  0  0  0  0
  136.0747  152.5945  144.9413 C   0  0  0  0  0  0  0  0  0  0  0  0
  136.8052  151.0477  143.4881 C   0  0  0  0  0  0  0  0  0  0  0  0
  135.7354  151.4120  144.4281 C   0  0  0  0  0  0  0  0  0  0  0  0
  1  2  1  0
  2  3  2  0
  1  4  2  0
  4  5  1  0
  3  6  1  0
  5  7  2  0
  7  8  1  0
  6  9  1  0
  3 10  1  0
  7 10  1  0
  9 11  1  0
 10 11  2  0
M  END
$$$$

     RDKit          3D

 11 12  0  0  0  0  0  0  0  0999 V2000
  138.7090  151.1469  142.6269 C   0  0  0  0  0  0  0  0  0  0  0  0
  138.5260  151.9370  143.5114 C   0  0  0  0  0  0  0  0  0  0  0  0
  137.3819  151.6579  144.3963 C   0  0  0  0  0  0  0  0  0  0  0  0
  139.7051  151.1184  141.6077 C   0  0  0  0  0  0  0  0  0  0  0  0
  136.7072  150.4347  144.0265 C   0  0  0  0  0  0  0  0  0  0  0  0
  139.4496  150.8400  140.3164 C   0  0  0  0  0  0  0  0  0  0  0  0
  138.1688  150.1903  140.1998 C   0  0  0  0  0  0  0  0  0  0  0  0
  137.2270  149.9082  141.2027 C   0  0  0  0  0  0  0  0  0  0  0  0
  135.9380  149.3193  141.0348 C   0  0  0  0  0  0  0  0  0  0  0  0
  137.4931  150.3669  142.4484 C   0  0  0  0  0  0  0  0  0  0  0  0
  136.8426  152.4473  145.5012 C   0  0  0  0  0  0  0  0  0  0  0  0
  1  2  1  0
  2  3  2  0
  1  4  1  0
  3  5  1  0
  4  6  2  0
  6  7  1  0
  7  8  2  0
  8  9  1  0
  1 10  2  0
  5 10  1  0
  8 10  1  0
  3 11  1  0
M  END
$$$$

     RDKit          3D

 11 12  0  0  0  0  0  0  0  0999 V2000
  138.7236  151.5756  143.3190 C   0  0  0  0  0  0  0  0  0  0  0  0
  137.9189  152.3262  143.7538 C   0  0  0  0  0  0  0  0  0  0  0  0
  136.7533  151.7852  144.4573 C   0  0  0  0  0  0  0  0  0  0  0  0
  136.8351  150.4435  144.7144 C   0  0  0  0  0  0  0  0  0  0  0  0
  135.7192  152.4673  144.9834 C   0  0  0  0  0  0  0  0  0  0  0  0
  138.5073  150.1686  143.2509 C   0  0  0  0  0  0  0  0  0  0  0  0
  134.7774  151.9784  145.6888 C   0  0  0  0  0  0  0  0  0  0  0  0
  139.3250  149.2236  142.5746 O   0  0  0  0  0  0  0  0  0  0  0  0
  134.7442  150.6188  146.0657 C   0  0  0  0  0  0  0  0  0  0  0  0
  135.8978  149.9528  145.5513 C   0  0  0  0  0  0  0  0  0  0  0  0
  137.7059  149.6600  144.0596 C   0  0  0  0  0  0  0  0  0  0  0  0
  1  2  1  0
  2  3  2  0
  3  4  1  0
  3  5  1  0
  1  6  2  0
  5  7  2  0
  6  8  1  0
  7  9  1  0
  4 10  1  0
  9 10  2  0
  4 11  2  0
  6 11  1  0
M  END
$$$$

     RDKit          3D

 11 12  0  0  0  0  0  0  0  0999 V2000
  139.2621  151.0929  142.4047 C   0  0  0  0  0  0  0  0  0  0  0  0
  138.8616  152.1308  142.9039 C   0  0  0  0  0  0  0  0  0  0  0  0
  137.7831  151.8921  143.8937 C   0  0  0  0  0  0  0  0  0  0  0  0
  138.6293  149.7793  142.4951 C   0  0  0  0  0  0  0  0  0  0  0  0
  137.3056  153.0075  144.6656 C   0  0  0  0  0  0  0  0  0  0  0  0
  136.1523  152.9008  145.2280 C   0  0  0  0  0  0  0  0  0  0  0  0
  136.9818  150.7163  144.2585 C   0  0  0  0  0  0  0  0  0  0  0  0
  135.4948  151.6904  145.2931 C   0  0  0  0  0  0  0  0  0  0  0  0
  137.5287  149.8012  143.4491 N   0  0  0  0  0  0  0  0  0  0  0  0
  134.3453  151.5757  146.1888 C   0  0  0  0  0  0  0  0  0  0  0  0
  136.1566  150.5698  144.8065 C   0  0  0  0  0  0  0  0  0  0  0  0
  1  2  1  0
  2  3  2  0
  1  4  2  0
  3  5  1  0
  5  6  2  0
  3  7  1  0
  6  8  1  0
  4  9  1  0
  7  9  2  0
  8 10  1  0
  7 11  1  0
  8 11  2  0
M  END
$$$$

     RDKit          3D

 11 12  0  0  0  0  0  0  0  0999 V2000
  139.3427  149.9935  140.5880 C   0  0  0  0  0  0  0  0  0  0  0  0
  138.9528  149.9224  139.3656 C   0  0  0  0  0  0  0  0  0  0  0  0
  138.6122  150.1102  141.6416 C   0  0  0  0  0  0  0  0  0  0  0  0
  137.1910  149.8704  141.8331 C   0  0  0  0  0  0  0  0  0  0  0  0
  136.5134  149.7658  140.5812 C   0  0  0  0  0  0  0  0  0  0  0  0
  139.1468  150.4926  143.0895 C   0  0  0  0  0  0  0  0  0  0  0  0
  138.1994  151.0020  144.0554 C   0  0  0  0  0  0  0  0  0  0  0  0
  137.3837  149.6884  139.2439 C   0  0  0  0  0  0  0  0  0  0  0  0
  136.5906  150.3455  142.9735 N   0  0  0  0  0  0  0  0  0  0  0  0
  136.9838  150.7260  144.0159 C   0  0  0  0  0  0  0  0  0  0  0  0
  136.1647  151.2813  145.1764 C   0  0  0  0  0  0  0  0  0  0  0  0
  1  2  2  0
  1  3  1  0
  3  4  1  0
  4  5  2  0
  3  6  1  0
  6  7  2  0
  2  8  1  0
  5  8  1  0
  4  9  1  0
  7 10  1  0
  9 10  2  0
 10 11  1  0
M  END
$$$$

     RDKit          3D

 11 12  0  0  0  0  0  0  0  0999 V2000
  139.3427  149.9935  140.5880 C   0  0  0  0  0  0  0  0  0  0  0  0
  138.9528  149.9224  139.3656 C   0  0  0  0  0  0  0  0  0  0  0  0
  138.6122  150.1102  141.6416 C   0  0  0  0  0  0  0  0  0  0  0  0
  137.1910  149.8704  141.8331 C   0  0  0  0  0  0  0  0  0  0  0  0
  136.5134  149.7658  140.5812 C   0  0  0  0  0  0  0  0  0  0  0  0
  139.2015  150.3839  143.0731 C   0  0  0  0  0  0  0  0  0  0  0  0
  138.2641  150.9554  144.0719 C   0  0  0  0  0  0  0  0  0  0  0  0
  137.2338  149.6918  139.3064 C   0  0  0  0  0  0  0  0  0  0  0  0
  136.4740  150.1460  142.9919 C   0  0  0  0  0  0  0  0  0  0  0  0
  137.0070  150.6525  144.0930 C   0  0  0  0  0  0  0  0  0  0  0  0
  136.0863  150.9976  145.3913 C   0  0  0  0  0  0  0  0  0  0  0  0
  1  2  2  0
  1  3  1  0
  3  4  1  0
  4  5  2  0
  3  6  1  0
  6  7  2  0
  2  8  1  0
  5  8  1  0
  4  9  1  0
  7 10  1  0
  9 10  2  0
 10 11  1  0
M  END
$$$$

     RDKit          3D

 11 11  0  0  0  0  0  0  0  0999 V2000
  140.3036  150.2148  139.4783 Cl  0  0  0  0  0  0  0  0  0  0  0  0
  138.6783  150.1860  140.5319 C   0  0  0  0  0  0  0  0  0  0  0  0
  137.6385  149.3831  140.0945 C   0  0  0  0  0  0  0  0  0  0  0  0
  138.8668  150.7183  141.4516 C   0  0  0  0  0  0  0  0  0  0  0  0
  137.5308  148.8049  138.7967 C   0  0  0  0  0  0  0  0  0  0  0  0
  137.9039  150.8483  142.6245 C   0  0  0  0  0  0  0  0  0  0  0  0
  136.5134  149.5452  140.9489 C   0  0  0  0  0  0  0  0  0  0  0  0
  138.1372  151.4606  143.8588 C   0  0  0  0  0  0  0  0  0  0  0  0
  136.6732  150.2228  142.1954 C   0  0  0  0  0  0  0  0  0  0  0  0
  137.0904  151.9210  144.6040 C   0  0  0  0  0  0  0  0  0  0  0  0
  136.4083  151.0103  145.4622 C   0  0  0  0  0  0  0  0  0  0  0  0
  1  2  1  0
  2  3  2  0
  2  4  1  0
  3  5  1  0
  4  6  2  0
  3  7  1  0
  6  8  1  0
  6  9  1  0
  7  9  2  0
  8 10  1  0
 10 11  1  0
M  END
$$$$

     RDKit          3D

 11 11  0  0  0  0  0  0  0  0999 V2000
  139.2621  151.0929  142.4047 C   0  0  0  0  0  0  0  0  0  0  0  0
  138.8616  152.1308  142.9039 C   0  0  0  0  0  0  0  0  0  0  0  0
  137.7831  151.8921  143.8937 C   0  0  0  0  0  0  0  0  0  0  0  0
  137.3591  150.5405  144.0623 C   0  0  0  0  0  0  0  0  0  0  0  0
  136.3238  150.4648  145.1225 C   0  0  0  0  0  0  0  0  0  0  0  0
  139.2673  149.7555  142.8050 C   0  0  0  0  0  0  0  0  0  0  0  0
  140.1304  151.2941  141.1073 C   0  0  0  0  0  0  0  0  0  0  0  0
  138.1861  149.4529  143.6311 C   0  0  0  0  0  0  0  0  0  0  0  0
  140.0547  150.6059  140.1477 C   0  0  0  0  0  0  0  0  0  0  0  0
  135.4295  151.3320  145.3173 C   0  0  0  0  0  0  0  0  0  0  0  0
  134.9839  152.1782  144.4248 C   0  0  0  0  0  0  0  0  0  0  0  0
  1  2  1  0
  2  3  2  0
  3  4  1  0
  4  5  2  3
  1  6  1  0
  1  7  2  3
  4  8  1  0
  6  8  2  0
  7  9  1  0
  5 10  1  0
 10 11  1  0
M  END
$$$$

     RDKit          3D

 11 12  0  0  0  0  0  0  0  0999 V2000
  139.3427  149.9935  140.5880 C   0  0  0  0  0  0  0  0  0  0  0  0
  138.9528  149.9224  139.3656 C   0  0  0  0  0  0  0  0  0  0  0  0
  138.6122  150.1102  141.6416 C   0  0  0  0  0  0  0  0  0  0  0  0
  137.1910  149.8704  141.8331 C   0  0  0  0  0  0  0  0  0  0  0  0
  136.5134  149.7658  140.5812 C   0  0  0  0  0  0  0  0  0  0  0  0
  139.1788  150.4012  143.1353 C   0  0  0  0  0  0  0  0  0  0  0  0
  138.2249  150.9731  144.0852 C   0  0  0  0  0  0  0  0  0  0  0  0
  137.2398  149.6919  139.3078 C   0  0  0  0  0  0  0  0  0  0  0  0
  136.4364  150.0918  142.8515 C   0  0  0  0  0  0  0  0  0  0  0  0
  135.0217  149.9933  142.7721 C   0  0  0  0  0  0  0  0  0  0  0  0
  136.9394  150.6604  144.1292 C   0  0  0  0  0  0  0  0  0  0  0  0
  1  2  2  0
  1  3  1  0
  3  4  1  0
  4  5  2  0
  3  6  1  0
  6  7  2  0
  2  8  1  0
  5  8  1  0
  4  9  1  0
  9 10  1  0
  7 11  1  0
  9 11  2  0
M  END
$$$$

     RDKit          3D

 11 11  0  0  0  0  0  0  0  0999 V2000
  140.3036  150.2148  139.4783 Cl  0  0  0  0  0  0  0  0  0  0  0  0
  138.6783  150.1860  140.5319 C   0  0  0  0  0  0  0  0  0  0  0  0
  137.6385  149.3831  140.0945 C   0  0  0  0  0  0  0  0  0  0  0  0
  138.7733  150.9283  141.6507 C   0  0  0  0  0  0  0  0  0  0  0  0
  137.6844  150.8835  142.5421 C   0  0  0  0  0  0  0  0  0  0  0  0
  137.8374  151.5218  143.8915 C   0  0  0  0  0  0  0  0  0  0  0  0
  136.6920  151.6926  144.6953 C   0  0  0  0  0  0  0  0  0  0  0  0
  136.6730  152.4940  145.8712 C   0  0  0  0  0  0  0  0  0  0  0  0
  136.4822  149.4441  140.9238 C   0  0  0  0  0  0  0  0  0  0  0  0
  136.5118  150.2092  142.0293 C   0  0  0  0  0  0  0  0  0  0  0  0
  135.3943  153.0898  145.8982 C   0  0  0  0  0  0  0  0  0  0  0  0
  1  2  1  0
  2  3  1  0
  2  4  2  0
  4  5  1  0
  5  6  1  0
  6  7  2  3
  7  8  1  0
  3  9  2  0
  5 10  2  0
  9 10  1  0
  8 11  1  0
M  END
$$$$

     RDKit          3D

 11 12  0  0  0  0  0  0  0  0999 V2000
  139.2621  151.0929  142.4047 C   0  0  0  0  0  0  0  0  0  0  0  0
  138.8616  152.1308  142.9039 C   0  0  0  0  0  0  0  0  0  0  0  0
  137.9118  151.7982  143.7822 C   0  0  0  0  0  0  0  0  0  0  0  0
  138.8285  150.4008  141.6024 C   0  0  0  0  0  0  0  0  0  0  0  0
  137.6662  149.9534  141.7610 C   0  0  0  0  0  0  0  0  0  0  0  0
  137.5078  152.6004  144.9580 C   0  0  0  0  0  0  0  0  0  0  0  0
  136.7566  150.5976  142.5696 C   0  0  0  0  0  0  0  0  0  0  0  0
  135.2516  150.0192  142.1955 C   0  0  0  0  0  0  0  0  0  0  0  0
  136.8609  151.2578  143.6889 C   0  0  0  0  0  0  0  0  0  0  0  0
  135.8902  151.2503  144.6769 C   0  0  0  0  0  0  0  0  0  0  0  0
  136.4531  152.2026  145.6111 C   0  0  0  0  0  0  0  0  0  0  0  0
  1  2  1  0
  2  3  2  0
  1  4  2  0
  4  5  1  0
  3  6  1  0
  5  7  2  0
  7  8  1  0
  3  9  1  0
  7  9  1  0
  9 10  2  0
  6 11  2  0
 10 11  1  0
M  END
$$$$

     RDKit          3D

 11 12  0  0  0  0  0  0  0  0999 V2000
  138.7090  151.1469  142.6269 C   0  0  0  0  0  0  0  0  0  0  0  0
  138.5260  151.9370  143.5114 C   0  0  0  0  0  0  0  0  0  0  0  0
  137.3819  151.6579  144.3963 C   0  0  0  0  0  0  0  0  0  0  0  0
  139.7051  151.1184  141.6077 C   0  0  0  0  0  0  0  0  0  0  0  0
  139.4637  150.8262  140.3138 C   0  0  0  0  0  0  0  0  0  0  0  0
  138.1443  150.1615  140.2328 C   0  0  0  0  0  0  0  0  0  0  0  0
  137.8478  149.6487  138.8336 C   0  0  0  0  0  0  0  0  0  0  0  0
  137.2643  149.9895  141.3145 C   0  0  0  0  0  0  0  0  0  0  0  0
  137.6674  150.2713  142.6982 C   0  0  0  0  0  0  0  0  0  0  0  0
  136.6875  150.6003  144.1276 C   0  0  0  0  0  0  0  0  0  0  0  0
  136.9425  152.3702  145.6342 C   0  0  0  0  0  0  0  0  0  0  0  0
  1  2  1  0
  2  3  2  0
  1  4  1  0
  4  5  2  0
  5  6  1  0
  6  7  1  0
  6  8  2  0
  1  9  2  0
  8  9  1  0
  3 10  1  0
  9 10  1  0
  3 11  1  0
M  END
$$$$

     RDKit          3D

 11 12  0  0  0  0  0  0  0  0999 V2000
  139.3427  149.9935  140.5880 C   0  0  0  0  0  0  0  0  0  0  0  0
  138.9528  149.9224  139.3656 C   0  0  0  0  0  0  0  0  0  0  0  0
  138.6122  150.1102  141.6416 C   0  0  0  0  0  0  0  0  0  0  0  0
  137.1910  149.8704  141.8331 C   0  0  0  0  0  0  0  0  0  0  0  0
  136.4707  150.2696  142.9684 C   0  0  0  0  0  0  0  0  0  0  0  0
  135.1320  150.3575  143.2741 C   0  0  0  0  0  0  0  0  0  0  0  0
  134.7294  151.0382  144.5260 C   0  0  0  0  0  0  0  0  0  0  0  0
  135.8759  151.1774  145.4350 C   0  0  0  0  0  0  0  0  0  0  0  0
  136.8864  151.8466  144.9355 C   0  0  0  0  0  0  0  0  0  0  0  0
  137.4272  151.1638  143.7468 C   0  0  0  0  0  0  0  0  0  0  0  0
  138.6412  150.6781  142.9715 C   0  0  0  0  0  0  0  0  0  0  0  0
  1  2  2  0
  1  3  1  0
  3  4  1  0
  4  5  2  0
  5  6  1  0
  6  7  2  0
  7  8  1  0
  8  9  1  0
  5 10  1  0
  9 10  1  0
  3 11  2  0
 10 11  1  0
M  END
$$$$

     RDKit          3D

 11 11  0  0  0  0  0  0  0  0999 V2000
  140.3036  150.2148  139.4783 Cl  0  0  0  0  0  0  0  0  0  0  0  0
  138.6783  150.1860  140.5319 C   0  0  0  0  0  0  0  0  0  0  0  0
  137.6385  149.3831  140.0945 C   0  0  0  0  0  0  0  0  0  0  0  0
  138.8668  150.7183  141.4516 C   0  0  0  0  0  0  0  0  0  0  0  0
  138.3194  150.9395  142.2987 C   0  0  0  0  0  0  0  0  0  0  0  0
  136.9007  150.1342  142.2766 C   0  0  0  0  0  0  0  0  0  0  0  0
  136.0346  150.4104  143.3393 C   0  0  0  0  0  0  0  0  0  0  0  0
  137.4083  148.7821  138.9116 C   0  0  0  0  0  0  0  0  0  0  0  0
  136.4724  151.2971  144.2937 C   0  0  0  0  0  0  0  0  0  0  0  0
  136.5495  149.5544  141.0949 C   0  0  0  0  0  0  0  0  0  0  0  0
  136.8324  152.4819  144.3158 O   0  0  0  0  0  0  0  0  0  0  0  0
  1  2  1  0
  2  3  2  0
  2  4  1  0
  4  5  2  0
  5  6  1  0
  6  7  1  0
  3  8  1  0
  7  9  1  0
  3 10  1  0
  6 10  2  0
  9 11  1  0
M  END
$$$$

     RDKit          3D

 11 12  0  0  0  0  0  0  0  0999 V2000
  138.9705  151.3124  142.5681 C   0  0  0  0  0  0  0  0  0  0  0  0
  138.6057  152.0894  143.2653 C   0  0  0  0  0  0  0  0  0  0  0  0
  137.6600  151.8349  144.0467 C   0  0  0  0  0  0  0  0  0  0  0  0
  136.5812  152.7548  144.5687 C   0  0  0  0  0  0  0  0  0  0  0  0
  135.5825  152.5183  145.5069 C   0  0  0  0  0  0  0  0  0  0  0  0
  135.6125  151.0466  145.8019 C   0  0  0  0  0  0  0  0  0  0  0  0
  137.2007  150.4699  144.5285 C   0  0  0  0  0  0  0  0  0  0  0  0
  134.6247  150.6979  146.8381 C   0  0  0  0  0  0  0  0  0  0  0  0
  138.7608  149.8797  142.6703 C   0  0  0  0  0  0  0  0  0  0  0  0
  137.8585  149.5472  143.7338 C   0  0  0  0  0  0  0  0  0  0  0  0
  136.3195  150.0984  145.4529 N   0  0  0  0  0  0  0  0  0  0  0  0
  1  2  2  0
  2  3  1  0
  3  4  1  0
  4  5  2  0
  5  6  1  0
  3  7  2  0
  6  8  1  0
  1  9  1  0
  7 10  1  0
  9 10  2  0
  6 11  2  0
  7 11  1  0
M  END
$$$$

     RDKit          3D

 11 12  0  0  0  0  0  0  0  0999 V2000
  139.2621  151.0929  142.4047 C   0  0  0  0  0  0  0  0  0  0  0  0
  138.8616  152.1308  142.9039 C   0  0  0  0  0  0  0  0  0  0  0  0
  137.7831  151.8921  143.8937 C   0  0  0  0  0  0  0  0  0  0  0  0
  138.6293  149.7793  142.4951 C   0  0  0  0  0  0  0  0  0  0  0  0
  137.6232  149.6974  143.4793 C   0  0  0  0  0  0  0  0  0  0  0  0
  137.3768  153.1151  144.6927 C   0  0  0  0  0  0  0  0  0  0  0  0
  136.1205  153.0622  145.3870 C   0  0  0  0  0  0  0  0  0  0  0  0
  135.4238  151.9283  145.3161 C   0  0  0  0  0  0  0  0  0  0  0  0
  137.1664  150.6427  144.1624 C   0  0  0  0  0  0  0  0  0  0  0  0
  134.3091  151.7928  146.1641 C   0  0  0  0  0  0  0  0  0  0  0  0
  136.2004  150.5923  145.0999 C   0  0  0  0  0  0  0  0  0  0  0  0
  1  2  1  0
  2  3  2  0
  1  4  2  0
  4  5  1  0
  3  6  1  0
  6  7  2  0
  7  8  1  0
  3  9  1  0
  5  9  2  0
  8 10  1  0
  8 11  1  0
  9 11  1  0
M  END
$$$$

     RDKit          3D

 11 12  0  0  0  0  0  0  0  0999 V2000
  139.5348  150.8906  142.2305 C   0  0  0  0  0  0  0  0  0  0  0  0
  139.0139  150.3976  141.0574 C   0  0  0  0  0  0  0  0  0  0  0  0
  138.6965  150.9489  143.4028 C   0  0  0  0  0  0  0  0  0  0  0  0
  137.7130  149.9460  141.0427 C   0  0  0  0  0  0  0  0  0  0  0  0
  137.5183  150.9374  143.4785 C   0  0  0  0  0  0  0  0  0  0  0  0
  136.6733  151.1274  144.6812 C   0  0  0  0  0  0  0  0  0  0  0  0
  139.8472  150.3901  139.8637 C   0  0  0  0  0  0  0  0  0  0  0  0
  136.7200  150.2063  141.8846 C   0  0  0  0  0  0  0  0  0  0  0  0
  136.4930  150.6203  143.0434 C   0  0  0  0  0  0  0  0  0  0  0  0
  135.4546  151.0196  143.8201 C   0  0  0  0  0  0  0  0  0  0  0  0
  139.3671  150.4826  138.6506 C   0  0  0  0  0  0  0  0  0  0  0  0
  1  2  2  0
  1  3  1  0
  2  4  1  0
  3  5  2  0
  5  6  1  0
  2  7  1  0
  4  8  2  0
  5  9  1  0
  8  9  1  0
  6 10  1  0
  9 10  1  0
  7 11  2  0
M  END
$$$$

     RDKit          3D

 11 11  0  0  0  0  0  0  0  0999 V2000
  139.3427  149.9935  140.5880 C   0  0  0  0  0  0  0  0  0  0  0  0
  138.9528  149.9224  139.3656 C   0  0  0  0  0  0  0  0  0  0  0  0
  138.6122  150.1102  141.6416 C   0  0  0  0  0  0  0  0  0  0  0  0
  137.1910  149.8704  141.8331 C   0  0  0  0  0  0  0  0  0  0  0  0
  136.5134  149.7658  140.5812 C   0  0  0  0  0  0  0  0  0  0  0  0
  135.0824  149.6836  140.4151 C   0  0  0  0  0  0  0  0  0  0  0  0
  139.7085  149.8258  138.1858 C   0  0  0  0  0  0  0  0  0  0  0  0
  137.3961  149.7257  139.2053 C   0  0  0  0  0  0  0  0  0  0  0  0
  139.0562  150.2181  143.0780 C   0  0  0  0  0  0  0  0  0  0  0  0
  138.1866  150.9501  144.1033 C   0  0  0  0  0  0  0  0  0  0  0  0
  137.2434  151.6870  143.7663 C   0  0  0  0  0  0  0  0  0  0  0  0
  1  2  2  0
  1  3  1  0
  3  4  1  0
  4  5  2  0
  5  6  1  0
  2  7  1  0
  2  8  1  0
  5  8  1  0
  3  9  1  0
  9 10  1  0
 10 11  1  0
M  END
$$$$

     RDKit          3D

 11 11  0  0  0  0  0  0  0  0999 V2000
  138.7090  151.1469  142.6269 C   0  0  0  0  0  0  0  0  0  0  0  0
  138.5260  151.9370  143.5114 C   0  0  0  0  0  0  0  0  0  0  0  0
  137.4749  151.6734  144.4638 C   0  0  0  0  0  0  0  0  0  0  0  0
  138.0103  149.8673  142.4738 C   0  0  0  0  0  0  0  0  0  0  0  0
  136.7212  150.4817  144.2964 C   0  0  0  0  0  0  0  0  0  0  0  0
  137.0162  149.5952  143.3274 C   0  0  0  0  0  0  0  0  0  0  0  0
  137.1315  152.6397  145.4953 C   0  0  0  0  0  0  0  0  0  0  0  0
  139.7947  151.3208  141.5586 C   0  0  0  0  0  0  0  0  0  0  0  0
  139.8329  150.4652  140.4368 C   0  0  0  0  0  0  0  0  0  0  0  0
  140.3986  150.6033  139.4476 C   0  0  0  0  0  0  0  0  0  0  0  0
  135.7803  152.7457  145.9256 C   0  0  0  0  0  0  0  0  0  0  0  0
  1  2  2  0
  2  3  1  0
  1  4  1  0
  3  5  2  0
  4  6  2  0
  5  6  1  0
  3  7  1  0
  1  8  1  0
  8  9  2  3
  9 10  1  0
  7 11  1  0
M  END
$$$$

     RDKit          3D

 11 11  0  0  0  0  0  0  0  0999 V2000
  139.0004  149.7631  140.3649 C   0  0  0  0  0  0  0  0  0  0  0  0
  139.7623  150.8543  140.7370 C   0  0  0  0  0  0  0  0  0  0  0  0
  139.2605  149.1459  139.1745 C   0  0  0  0  0  0  0  0  0  0  0  0
  139.5454  151.5142  142.0095 C   0  0  0  0  0  0  0  0  0  0  0  0
  138.4600  150.9915  142.6960 C   0  0  0  0  0  0  0  0  0  0  0  0
  137.8908  149.5533  141.2205 C   0  0  0  0  0  0  0  0  0  0  0  0
  138.2361  151.6729  144.1109 C   0  0  0  0  0  0  0  0  0  0  0  0
  136.9034  151.6291  144.5714 C   0  0  0  0  0  0  0  0  0  0  0  0
  136.5732  152.3241  145.7893 C   0  0  0  0  0  0  0  0  0  0  0  0
  135.3709  153.0364  145.6817 C   0  0  0  0  0  0  0  0  0  0  0  0
  137.5546  150.0673  142.3130 N   0  0  0  0  0  0  0  0  0  0  0  0
  1  2  2  0
  1  3  1  0
  2  4  1  0
  4  5  2  0
  1  6  1  0
  5  7  1  0
  7  8  2  3
  8  9  1  0
  9 10  1  0
  5 11  1  0
  6 11  2  0
M  END
$$$$

     RDKit          3D

 11 11  0  0  0  0  0  0  0  0999 V2000
  139.5348  150.8906  142.2305 C   0  0  0  0  0  0  0  0  0  0  0  0
  139.0139  150.3976  141.0574 C   0  0  0  0  0  0  0  0  0  0  0  0
  138.6965  150.9489  143.4028 C   0  0  0  0  0  0  0  0  0  0  0  0
  137.7130  149.9460  141.0427 C   0  0  0  0  0  0  0  0  0  0  0  0
  137.5183  150.9374  143.4785 C   0  0  0  0  0  0  0  0  0  0  0  0
  136.6733  151.1274  144.6812 C   0  0  0  0  0  0  0  0  0  0  0  0
  139.8472  150.3901  139.8637 C   0  0  0  0  0  0  0  0  0  0  0  0
  135.5811  151.9101  144.4971 C   0  0  0  0  0  0  0  0  0  0  0  0
  134.7628  152.3266  145.7390 C   0  0  0  0  0  0  0  0  0  0  0  0
  136.6687  150.3851  142.3334 C   0  0  0  0  0  0  0  0  0  0  0  0
  135.2175  151.5723  146.8107 C   0  0  0  0  0  0  0  0  0  0  0  0
  1  2  2  0
  1  3  1  0
  2  4  1  0
  3  5  2  0
  5  6  1  0
  2  7  1  0
  6  8  1  0
  8  9  1  0
  4 10  1  0
  5 10  1  0
  9 11  1  0
M  END
$$$$

     RDKit          3D

 11 12  0  0  0  0  0  0  0  0999 V2000
  139.2621  151.0929  142.4047 C   0  0  0  0  0  0  0  0  0  0  0  0
  138.8616  152.1308  142.9039 C   0  0  0  0  0  0  0  0  0  0  0  0
  137.9118  151.7982  143.7822 C   0  0  0  0  0  0  0  0  0  0  0  0
  138.8285  150.4008  141.6024 C   0  0  0  0  0  0  0  0  0  0  0  0
  137.6662  149.9534  141.7610 C   0  0  0  0  0  0  0  0  0  0  0  0
  137.5078  152.6004  144.9580 C   0  0  0  0  0  0  0  0  0  0  0  0
  136.7566  150.5976  142.5696 C   0  0  0  0  0  0  0  0  0  0  0  0
  135.2516  150.0192  142.1955 C   0  0  0  0  0  0  0  0  0  0  0  0
  136.0747  152.5945  144.9413 C   0  0  0  0  0  0  0  0  0  0  0  0
  136.8052  151.0477  143.4881 C   0  0  0  0  0  0  0  0  0  0  0  0
  135.9314  151.0407  144.3971 N   0  0  0  0  0  0  0  0  0  0  0  0
  1  2  1  0
  2  3  2  0
  1  4  2  0
  4  5  1  0
  3  6  1  0
  5  7  2  0
  7  8  1  0
  6  9  1  0
  3 10  1  0
  7 10  1  0
  9 11  1  0
 10 11  1  0
M  END
$$$$

     RDKit          3D

 11 11  0  0  0  0  0  0  0  0999 V2000
  138.7090  151.1469  142.6269 C   0  0  0  0  0  0  0  0  0  0  0  0
  138.5260  151.9370  143.5114 C   0  0  0  0  0  0  0  0  0  0  0  0
  137.4749  151.6734  144.4638 C   0  0  0  0  0  0  0  0  0  0  0  0
  138.0103  149.8673  142.4738 C   0  0  0  0  0  0  0  0  0  0  0  0
  136.7212  150.4817  144.2964 C   0  0  0  0  0  0  0  0  0  0  0  0
  137.0162  149.5952  143.3274 C   0  0  0  0  0  0  0  0  0  0  0  0
  137.1315  152.6397  145.4953 C   0  0  0  0  0  0  0  0  0  0  0  0
  139.7947  151.3208  141.5586 C   0  0  0  0  0  0  0  0  0  0  0  0
  139.8329  150.4652  140.4368 C   0  0  0  0  0  0  0  0  0  0  0  0
  136.0177  153.1951  145.4091 C   0  0  0  0  0  0  0  0  0  0  0  0
  140.1032  151.0084  139.1339 C   0  0  0  0  0  0  0  0  0  0  0  0
  1  2  2  0
  2  3  1  0
  1  4  1  0
  3  5  2  0
  4  6  2  0
  5  6  1  0
  3  7  1  0
  1  8  1  0
  8  9  1  0
  7 10  1  0
  9 11  1  0
M  END
$$$$

     RDKit          3D

 11 12  0  0  0  0  0  0  0  0999 V2000
  139.3427  149.9935  140.5880 C   0  0  0  0  0  0  0  0  0  0  0  0
  138.9528  149.9224  139.3656 C   0  0  0  0  0  0  0  0  0  0  0  0
  138.6122  150.1102  141.6416 C   0  0  0  0  0  0  0  0  0  0  0  0
  137.1910  149.8704  141.8331 C   0  0  0  0  0  0  0  0  0  0  0  0
  136.5134  149.7658  140.5812 C   0  0  0  0  0  0  0  0  0  0  0  0
  139.1788  150.4012  143.1353 C   0  0  0  0  0  0  0  0  0  0  0  0
  138.2249  150.9731  144.0852 C   0  0  0  0  0  0  0  0  0  0  0  0
  139.6664  149.8788  138.1669 C   0  0  0  0  0  0  0  0  0  0  0  0
  135.0561  149.6505  140.4939 C   0  0  0  0  0  0  0  0  0  0  0  0
  136.8274  150.3644  143.1278 N   0  0  0  0  0  0  0  0  0  0  0  0
  137.3060  149.6353  139.4380 C   0  0  0  0  0  0  0  0  0  0  0  0
  1  2  2  0
  1  3  1  0
  3  4  1  0
  4  5  2  0
  3  6  1  0
  6  7  2  0
  2  8  1  0
  5  9  1  0
  4 10  1  0
  7 10  1  0
  2 11  1  0
  5 11  1  0
M  END
$$$$

     RDKit          3D

 11 12  0  0  0  0  0  0  0  0999 V2000
  140.3036  150.2148  139.4783 Cl  0  0  0  0  0  0  0  0  0  0  0  0
  138.6783  150.1860  140.5319 C   0  0  0  0  0  0  0  0  0  0  0  0
  137.6385  149.3831  140.0945 C   0  0  0  0  0  0  0  0  0  0  0  0
  139.0332  150.8824  141.6179 C   0  0  0  0  0  0  0  0  0  0  0  0
  136.6575  149.6448  140.8215 C   0  0  0  0  0  0  0  0  0  0  0  0
  136.6519  150.4533  141.8775 C   0  0  0  0  0  0  0  0  0  0  0  0
  135.4324  150.7378  142.7868 C   0  0  0  0  0  0  0  0  0  0  0  0
  135.9124  151.2971  144.0363 C   0  0  0  0  0  0  0  0  0  0  0  0
  137.3283  151.5106  144.0749 C   0  0  0  0  0  0  0  0  0  0  0  0
  137.8520  151.0242  142.4722 C   0  0  0  0  0  0  0  0  0  0  0  0
  138.1888  151.9641  144.9571 C   0  0  0  0  0  0  0  0  0  0  0  0
  1  2  1  0
  2  3  2  0
  2  4  1  0
  3  5  1  0
  5  6  2  0
  6  7  1  0
  7  8  2  0
  8  9  1  0
  4 10  2  0
  6 10  1  0
  9 10  1  0
  9 11  1  0
M  END
$$$$

     RDKit          3D

 11 11  0  0  0  0  0  0  0  0999 V2000
  140.3036  150.2148  139.4783 Cl  0  0  0  0  0  0  0  0  0  0  0  0
  138.6783  150.1860  140.5319 C   0  0  0  0  0  0  0  0  0  0  0  0
  137.6385  149.3831  140.0945 C   0  0  0  0  0  0  0  0  0  0  0  0
  138.7505  150.9487  141.6715 C   0  0  0  0  0  0  0  0  0  0  0  0
  137.7560  150.8742  142.6261 C   0  0  0  0  0  0  0  0  0  0  0  0
  136.5042  149.3300  140.9884 C   0  0  0  0  0  0  0  0  0  0  0  0
  136.5793  150.1099  142.1951 C   0  0  0  0  0  0  0  0  0  0  0  0
  137.6813  151.6607  143.8609 C   0  0  0  0  0  0  0  0  0  0  0  0
  136.5742  151.5282  144.6692 C   0  0  0  0  0  0  0  0  0  0  0  0
  136.2614  152.6958  145.5495 C   0  0  0  0  0  0  0  0  0  0  0  0
  135.0620  152.7090  146.3062 C   0  0  0  0  0  0  0  0  0  0  0  0
  1  2  1  0
  2  3  2  0
  2  4  1  0
  4  5  2  0
  3  6  1  0
  5  7  1  0
  6  7  2  0
  5  8  1  0
  8  9  1  0
  9 10  1  0
 10 11  1  0
M  END
$$$$

     RDKit          3D

 11 11  0  0  0  0  0  0  0  0999 V2000
  139.3427  149.9935  140.5880 C   0  0  0  0  0  0  0  0  0  0  0  0
  138.9528  149.9224  139.3656 C   0  0  0  0  0  0  0  0  0  0  0  0
  138.6122  150.1102  141.6416 C   0  0  0  0  0  0  0  0  0  0  0  0
  137.5740  149.8706  139.0588 C   0  0  0  0  0  0  0  0  0  0  0  0
  137.1494  149.9724  141.5205 C   0  0  0  0  0  0  0  0  0  0  0  0
  136.2695  150.1338  142.6387 C   0  0  0  0  0  0  0  0  0  0  0  0
  136.6228  149.8862  140.0939 C   0  0  0  0  0  0  0  0  0  0  0  0
  136.8108  151.0574  143.5764 C   0  0  0  0  0  0  0  0  0  0  0  0
  135.9362  151.3869  144.7543 C   0  0  0  0  0  0  0  0  0  0  0  0
  135.5669  150.6530  145.6263 C   0  0  0  0  0  0  0  0  0  0  0  0
  136.0364  152.8836  145.2720 C   0  0  0  0  0  0  0  0  0  0  0  0
  1  2  2  0
  1  3  1  0
  2  4  1  0
  3  5  2  0
  5  6  1  0
  4  7  2  0
  5  7  1  0
  6  8  1  0
  8  9  1  0
  9 10  2  0
  9 11  1  0
M  END
$$$$

     RDKit          3D

 11 11  0  0  0  0  0  0  0  0999 V2000
  139.3427  149.9935  140.5880 C   0  0  0  0  0  0  0  0  0  0  0  0
  138.9528  149.9224  139.3656 C   0  0  0  0  0  0  0  0  0  0  0  0
  138.6122  150.1102  141.6416 C   0  0  0  0  0  0  0  0  0  0  0  0
  137.1910  149.8704  141.8331 C   0  0  0  0  0  0  0  0  0  0  0  0
  136.4707  150.2696  142.9684 C   0  0  0  0  0  0  0  0  0  0  0  0
  135.1320  150.3575  143.2741 C   0  0  0  0  0  0  0  0  0  0  0  0
  134.7294  151.0382  144.5260 C   0  0  0  0  0  0  0  0  0  0  0  0
  137.4101  150.6844  144.0875 C   0  0  0  0  0  0  0  0  0  0  0  0
  137.1142  150.9614  145.3197 C   0  0  0  0  0  0  0  0  0  0  0  0
  135.6877  151.2109  145.6061 C   0  0  0  0  0  0  0  0  0  0  0  0
  139.1175  150.8790  143.7940 Cl  0  0  0  0  0  0  0  0  0  0  0  0
  1  2  2  0
  1  3  1  0
  3  4  1  0
  4  5  2  3
  5  6  1  0
  6  7  2  0
  5  8  1  0
  8  9  2  0
  7 10  1  0
  9 10  1  0
  8 11  1  0
M  END
$$$$

     RDKit          3D

 11 11  0  0  0  0  0  0  0  0999 V2000
  139.3427  149.9935  140.5880 C   0  0  0  0  0  0  0  0  0  0  0  0
  138.9528  149.9224  139.3656 C   0  0  0  0  0  0  0  0  0  0  0  0
  138.6122  150.1102  141.6416 C   0  0  0  0  0  0  0  0  0  0  0  0
  137.5740  149.8706  139.0588 C   0  0  0  0  0  0  0  0  0  0  0  0
  137.0940  149.4943  137.8146 C   0  0  0  0  0  0  0  0  0  0  0  0
  136.7645  149.9138  140.3205 C   0  0  0  0  0  0  0  0  0  0  0  0
  139.1419  150.2992  143.0591 C   0  0  0  0  0  0  0  0  0  0  0  0
  135.2763  150.0038  140.1434 C   0  0  0  0  0  0  0  0  0  0  0  0
  138.2067  150.7700  144.0868 C   0  0  0  0  0  0  0  0  0  0  0  0
  137.2463  150.1516  141.5986 C   0  0  0  0  0  0  0  0  0  0  0  0
  137.3247  151.6755  144.0451 C   0  0  0  0  0  0  0  0  0  0  0  0
  1  2  2  0
  1  3  1  0
  2  4  1  0
  4  5  1  0
  4  6  2  0
  3  7  1  0
  6  8  1  0
  7  9  2  3
  3 10  2  0
  6 10  1  0
  9 11  1  0
M  END
$$$$

     RDKit          3D

 11 12  0  0  0  0  0  0  0  0999 V2000
  138.7236  151.5756  143.3190 C   0  0  0  0  0  0  0  0  0  0  0  0
  137.9189  152.3262  143.7538 C   0  0  0  0  0  0  0  0  0  0  0  0
  136.7533  151.7852  144.4573 C   0  0  0  0  0  0  0  0  0  0  0  0
  136.8351  150.4435  144.7144 C   0  0  0  0  0  0  0  0  0  0  0  0
  138.7274  150.3736  143.0180 C   0  0  0  0  0  0  0  0  0  0  0  0
  135.9800  149.8157  145.6775 C   0  0  0  0  0  0  0  0  0  0  0  0
  135.6744  152.2838  145.0180 C   0  0  0  0  0  0  0  0  0  0  0  0
  135.4404  152.3592  146.3074 C   0  0  0  0  0  0  0  0  0  0  0  0
  135.2366  150.8803  146.7329 C   0  0  0  0  0  0  0  0  0  0  0  0
  139.6268  149.6469  142.1964 C   0  0  0  0  0  0  0  0  0  0  0  0
  137.7027  149.6479  143.8309 N   0  0  0  0  0  0  0  0  0  0  0  0
  1  2  1  0
  2  3  2  0
  3  4  1  0
  1  5  2  0
  4  6  1  0
  3  7  1  0
  7  8  1  0
  6  9  1  0
  8  9  1  0
  5 10  1  0
  4 11  2  0
  5 11  1  0
M  END
$$$$

     RDKit          3D

 11 12  0  0  0  0  0  0  0  0999 V2000
  139.2621  151.0929  142.4047 C   0  0  0  0  0  0  0  0  0  0  0  0
  138.8616  152.1308  142.9039 C   0  0  0  0  0  0  0  0  0  0  0  0
  137.9118  151.7982  143.7822 C   0  0  0  0  0  0  0  0  0  0  0  0
  138.8285  150.4008  141.6024 C   0  0  0  0  0  0  0  0  0  0  0  0
  137.6662  149.9534  141.7610 C   0  0  0  0  0  0  0  0  0  0  0  0
  137.5078  152.6004  144.9580 C   0  0  0  0  0  0  0  0  0  0  0  0
  136.7566  150.5976  142.5696 C   0  0  0  0  0  0  0  0  0  0  0  0
  135.2516  150.0192  142.1955 C   0  0  0  0  0  0  0  0  0  0  0  0
  136.8609  151.2578  143.6889 C   0  0  0  0  0  0  0  0  0  0  0  0
  135.8902  151.2503  144.6769 C   0  0  0  0  0  0  0  0  0  0  0  0
  136.4318  152.1947  145.4790 N   0  0  0  0  0  0  0  0  0  0  0  0
  1  2  1  0
  2  3  2  0
  1  4  2  0
  4  5  1  0
  3  6  1  0
  5  7  2  0
  7  8  1  0
  3  9  1  0
  7  9  1  0
  9 10  2  0
  6 11  2  0
 10 11  1  0
M  END
$$$$

     RDKit          3D

 11 12  0  0  0  0  0  0  0  0999 V2000
  139.3427  149.9935  140.5880 C   0  0  0  0  0  0  0  0  0  0  0  0
  138.9528  149.9224  139.3656 C   0  0  0  0  0  0  0  0  0  0  0  0
  138.6122  150.1102  141.6416 C   0  0  0  0  0  0  0  0  0  0  0  0
  137.1910  149.8704  141.8331 C   0  0  0  0  0  0  0  0  0  0  0  0
  136.5134  149.7658  140.5812 C   0  0  0  0  0  0  0  0  0  0  0  0
  139.2015  150.3839  143.0731 C   0  0  0  0  0  0  0  0  0  0  0  0
  138.2641  150.9554  144.0719 C   0  0  0  0  0  0  0  0  0  0  0  0
  137.2133  149.6924  139.2631 C   0  0  0  0  0  0  0  0  0  0  0  0
  136.4700  150.1487  142.9873 C   0  0  0  0  0  0  0  0  0  0  0  0
  137.1113  150.7285  144.0608 C   0  0  0  0  0  0  0  0  0  0  0  0
  136.0846  151.2066  145.3779 Cl  0  0  0  0  0  0  0  0  0  0  0  0
  1  2  2  0
  1  3  1  0
  3  4  1  0
  4  5  2  0
  3  6  1  0
  6  7  2  0
  2  8  1  0
  5  8  1  0
  4  9  1  0
  7 10  1  0
  9 10  2  0
 10 11  1  0
M  END
$$$$

     RDKit          3D

 11 12  0  0  0  0  0  0  0  0999 V2000
  138.7236  151.5756  143.3190 C   0  0  0  0  0  0  0  0  0  0  0  0
  137.9189  152.3262  143.7538 C   0  0  0  0  0  0  0  0  0  0  0  0
  136.7533  151.7852  144.4573 C   0  0  0  0  0  0  0  0  0  0  0  0
  136.8351  150.4435  144.7144 C   0  0  0  0  0  0  0  0  0  0  0  0
  138.7274  150.3736  143.0180 C   0  0  0  0  0  0  0  0  0  0  0  0
  135.9800  149.8157  145.6775 C   0  0  0  0  0  0  0  0  0  0  0  0
  135.6744  152.2838  145.0180 C   0  0  0  0  0  0  0  0  0  0  0  0
  135.4404  152.3592  146.3074 C   0  0  0  0  0  0  0  0  0  0  0  0
  134.9321  153.3755  147.0000 C   0  0  0  0  0  0  0  0  0  0  0  0
  135.3161  150.9428  146.1998 C   0  0  0  0  0  0  0  0  0  0  0  0
  137.9687  149.4765  143.8187 C   0  0  0  0  0  0  0  0  0  0  0  0
  1  2  1  0
  2  3  2  0
  3  4  1  0
  1  5  2  0
  4  6  1  0
  3  7  1  0
  7  8  1  0
  8  9  1  0
  6 10  1  0
  8 10  1  0
  4 11  2  0
  5 11  1  0
M  END
$$$$

     RDKit          3D

 12 13  0  0  0  0  0  0  0  0999 V2000
  140.3036  150.2148  139.4783 Cl  0  0  0  0  0  0  0  0  0  0  0  0
  138.6783  150.1860  140.5319 C   0  0  0  0  0  0  0  0  0  0  0  0
  137.6385  149.3831  140.0945 C   0  0  0  0  0  0  0  0  0  0  0  0
  138.8668  150.7183  141.4516 C   0  0  0  0  0  0  0  0  0  0  0  0
  138.3194  150.9395  142.2987 C   0  0  0  0  0  0  0  0  0  0  0  0
  136.9007  150.1342  142.2766 C   0  0  0  0  0  0  0  0  0  0  0  0
  138.2473  151.6023  143.8292 C   0  0  0  0  0  0  0  0  0  0  0  0
  135.9409  150.4084  143.2702 C   0  0  0  0  0  0  0  0  0  0  0  0
  136.5681  149.5590  140.9975 C   0  0  0  0  0  0  0  0  0  0  0  0
  136.3928  151.1078  144.4199 C   0  0  0  0  0  0  0  0  0  0  0  0
  135.2756  151.2064  145.5399 C   0  0  0  0  0  0  0  0  0  0  0  0
  137.4003  151.5989  144.6788 C   0  0  0  0  0  0  0  0  0  0  0  0
  1  2  1  0
  2  3  2  0
  2  4  1  0
  4  5  2  0
  5  6  1  0
  5  7  1  0
  6  8  1  0
  3  9  1  0
  6  9  2  0
  8 10  2  0
 10 11  1  0
  7 12  1  0
 10 12  1  0
M  END
$$$$

     RDKit          3D

 12 13  0  0  0  0  0  0  0  0999 V2000
  139.3427  149.9935  140.5880 C   0  0  0  0  0  0  0  0  0  0  0  0
  138.9528  149.9224  139.3656 C   0  0  0  0  0  0  0  0  0  0  0  0
  138.6122  150.1102  141.6416 C   0  0  0  0  0  0  0  0  0  0  0  0
  137.5740  149.8706  139.0588 C   0  0  0  0  0  0  0  0  0  0  0  0
  137.1494  149.9724  141.5205 C   0  0  0  0  0  0  0  0  0  0  0  0
  136.2695  150.1338  142.6387 C   0  0  0  0  0  0  0  0  0  0  0  0
  136.6228  149.8862  140.0939 C   0  0  0  0  0  0  0  0  0  0  0  0
  136.8108  151.0574  143.5764 C   0  0  0  0  0  0  0  0  0  0  0  0
  138.1115  151.3300  143.7236 C   0  0  0  0  0  0  0  0  0  0  0  0
  138.8814  150.5500  142.9590 C   0  0  0  0  0  0  0  0  0  0  0  0
  136.3120  151.5362  144.8707 C   0  0  0  0  0  0  0  0  0  0  0  0
  135.3646  152.6133  144.9507 C   0  0  0  0  0  0  0  0  0  0  0  0
  1  2  2  0
  1  3  1  0
  2  4  1  0
  3  5  2  0
  5  6  1  0
  4  7  2  0
  5  7  1  0
  6  8  1  0
  8  9  1  0
  3 10  1  0
  9 10  2  0
  8 11  1  0
 11 12  1  0
M  END
$$$$

     RDKit          3D

 12 13  0  0  0  0  0  0  0  0999 V2000
  140.3036  150.2148  139.4783 Cl  0  0  0  0  0  0  0  0  0  0  0  0
  138.6783  150.1860  140.5319 C   0  0  0  0  0  0  0  0  0  0  0  0
  137.6385  149.3831  140.0945 C   0  0  0  0  0  0  0  0  0  0  0  0
  138.7505  150.9487  141.6715 C   0  0  0  0  0  0  0  0  0  0  0  0
  136.5606  149.6034  140.7973 C   0  0  0  0  0  0  0  0  0  0  0  0
  136.3933  150.3970  141.9259 C   0  0  0  0  0  0  0  0  0  0  0  0
  135.1767  150.5746  142.7425 C   0  0  0  0  0  0  0  0  0  0  0  0
  135.6228  151.2741  143.9969 C   0  0  0  0  0  0  0  0  0  0  0  0
  137.6512  151.0378  142.4402 C   0  0  0  0  0  0  0  0  0  0  0  0
  134.6715  151.5985  145.0540 C   0  0  0  0  0  0  0  0  0  0  0  0
  137.0561  151.6519  144.1868 C   0  0  0  0  0  0  0  0  0  0  0  0
  138.0267  151.6616  143.5389 C   0  0  0  0  0  0  0  0  0  0  0  0
  1  2  1  0
  2  3  2  0
  2  4  1  0
  3  5  1  0
  5  6  2  0
  6  7  1  0
  7  8  2  0
  4  9  2  0
  6  9  1  0
  8 10  1  0
  8 11  1  0
  9 12  1  0
 11 12  2  0
M  END
$$$$

     RDKit          3D

 12 13  0  0  0  0  0  0  0  0999 V2000
  139.3945  150.7512  142.0131 C   0  0  0  0  0  0  0  0  0  0  0  0
  139.0648  150.4899  140.7531 C   0  0  0  0  0  0  0  0  0  0  0  0
  138.4477  150.6358  143.0423 C   0  0  0  0  0  0  0  0  0  0  0  0
  137.8333  149.9852  140.4375 C   0  0  0  0  0  0  0  0  0  0  0  0
  136.8171  149.7852  141.4624 C   0  0  0  0  0  0  0  0  0  0  0  0
  138.7929  151.0544  144.4367 C   0  0  0  0  0  0  0  0  0  0  0  0
  137.7744  151.8317  144.9216 C   0  0  0  0  0  0  0  0  0  0  0  0
  136.5698  151.8076  144.4867 C   0  0  0  0  0  0  0  0  0  0  0  0
  135.4266  149.6118  141.0887 C   0  0  0  0  0  0  0  0  0  0  0  0
  136.1139  151.3119  143.5905 C   0  0  0  0  0  0  0  0  0  0  0  0
  137.0277  150.4924  142.5926 C   0  0  0  0  0  0  0  0  0  0  0  0
  135.4393  152.7278  145.4335 C   0  0  0  0  0  0  0  0  0  0  0  0
  1  2  2  0
  1  3  1  0
  2  4  1  0
  4  5  2  0
  3  6  1  0
  6  7  2  0
  7  8  1  0
  5  9  1  0
  8 10  2  0
  3 11  2  0
  5 11  1  0
 10 11  1  0
  8 12  1  0
M  END
$$$$

     RDKit          3D

 12 13  0  0  0  0  0  0  0  0999 V2000
  138.9705  151.3124  142.5681 C   0  0  0  0  0  0  0  0  0  0  0  0
  138.6057  152.0894  143.2653 C   0  0  0  0  0  0  0  0  0  0  0  0
  137.5209  151.8314  144.2019 C   0  0  0  0  0  0  0  0  0  0  0  0
  136.5811  152.7823  144.6505 C   0  0  0  0  0  0  0  0  0  0  0  0
  135.5281  152.5971  145.5921 C   0  0  0  0  0  0  0  0  0  0  0  0
  135.4711  151.1567  145.9206 C   0  0  0  0  0  0  0  0  0  0  0  0
  137.0945  150.5142  144.7085 C   0  0  0  0  0  0  0  0  0  0  0  0
  138.1042  149.5024  144.2048 C   0  0  0  0  0  0  0  0  0  0  0  0
  136.2347  150.1254  145.6404 C   0  0  0  0  0  0  0  0  0  0  0  0
  139.9216  151.5504  141.4931 C   0  0  0  0  0  0  0  0  0  0  0  0
  139.8805  150.6082  140.3371 C   0  0  0  0  0  0  0  0  0  0  0  0
  138.8137  149.7809  142.9495 C   0  0  0  0  0  0  0  0  0  0  0  0
  1  2  2  0
  2  3  1  0
  3  4  1  0
  4  5  2  0
  5  6  1  0
  3  7  2  0
  7  8  1  0
  6  9  2  0
  7  9  1  0
  1 10  1  0
 10 11  1  0
  1 12  1  0
  8 12  2  0
M  END
$$$$

     RDKit          3D

 12 13  0  0  0  0  0  0  0  0999 V2000
  138.9705  151.3124  142.5681 C   0  0  0  0  0  0  0  0  0  0  0  0
  138.6057  152.0894  143.2653 C   0  0  0  0  0  0  0  0  0  0  0  0
  137.6600  151.8349  144.0467 C   0  0  0  0  0  0  0  0  0  0  0  0
  139.9939  151.3511  141.4314 C   0  0  0  0  0  0  0  0  0  0  0  0
  137.4795  150.6675  144.8972 C   0  0  0  0  0  0  0  0  0  0  0  0
  139.6568  150.7243  140.2644 C   0  0  0  0  0  0  0  0  0  0  0  0
  138.5004  150.0428  140.1974 C   0  0  0  0  0  0  0  0  0  0  0  0
  137.5686  149.8234  141.3807 C   0  0  0  0  0  0  0  0  0  0  0  0
  137.9178  150.2584  142.2808 C   0  0  0  0  0  0  0  0  0  0  0  0
  138.0583  149.4208  138.9363 C   0  0  0  0  0  0  0  0  0  0  0  0
  137.3123  149.6762  143.7525 N   0  0  0  0  0  0  0  0  0  0  0  0
  137.9970  148.3565  138.5044 C   0  0  0  0  0  0  0  0  0  0  0  0
  1  2  2  0
  2  3  1  0
  1  4  1  0
  3  5  2  0
  4  6  2  0
  6  7  1  0
  7  8  1  0
  1  9  1  0
  8  9  2  0
  7 10  2  3
  5 11  1  0
  9 11  1  0
 10 12  1  0
M  END
$$$$

     RDKit          3D

 12 13  0  0  0  0  0  0  0  0999 V2000
  139.3427  149.9935  140.5880 C   0  0  0  0  0  0  0  0  0  0  0  0
  138.9528  149.9224  139.3656 C   0  0  0  0  0  0  0  0  0  0  0  0
  138.6122  150.1102  141.6416 C   0  0  0  0  0  0  0  0  0  0  0  0
  137.1910  149.8704  141.8331 C   0  0  0  0  0  0  0  0  0  0  0  0
  136.5134  149.7658  140.5812 C   0  0  0  0  0  0  0  0  0  0  0  0
  139.1788  150.4012  143.1353 C   0  0  0  0  0  0  0  0  0  0  0  0
  138.2249  150.9731  144.0852 C   0  0  0  0  0  0  0  0  0  0  0  0
  139.6664  149.8788  138.1669 C   0  0  0  0  0  0  0  0  0  0  0  0
  136.4809  150.1375  143.0193 C   0  0  0  0  0  0  0  0  0  0  0  0
  137.2085  149.6621  139.2889 C   0  0  0  0  0  0  0  0  0  0  0  0
  136.9754  150.6400  144.0913 C   0  0  0  0  0  0  0  0  0  0  0  0
  136.0429  150.9892  145.3959 C   0  0  0  0  0  0  0  0  0  0  0  0
  1  2  2  0
  1  3  1  0
  3  4  1  0
  4  5  2  0
  3  6  1  0
  6  7  2  0
  2  8  1  0
  4  9  1  0
  2 10  1  0
  5 10  1  0
  7 11  1  0
  9 11  2  0
 11 12  1  0
M  END
$$$$

     RDKit          3D

 12 12  0  0  0  0  0  0  0  0999 V2000
  138.7090  151.1469  142.6269 C   0  0  0  0  0  0  0  0  0  0  0  0
  138.5260  151.9370  143.5114 C   0  0  0  0  0  0  0  0  0  0  0  0
  137.3914  151.8088  144.0737 C   0  0  0  0  0  0  0  0  0  0  0  0
  138.6945  150.6819  141.4251 C   0  0  0  0  0  0  0  0  0  0  0  0
  136.4561  150.8624  143.7041 C   0  0  0  0  0  0  0  0  0  0  0  0
  136.9596  152.6921  145.2656 C   0  0  0  0  0  0  0  0  0  0  0  0
  138.9201  150.0702  140.0443 C   0  0  0  0  0  0  0  0  0  0  0  0
  137.8842  149.5581  139.5378 C   0  0  0  0  0  0  0  0  0  0  0  0
  140.0729  150.3071  139.9306 C   0  0  0  0  0  0  0  0  0  0  0  0
  138.0253  149.2627  138.5013 C   0  0  0  0  0  0  0  0  0  0  0  0
  140.4787  149.8385  138.5333 C   0  0  0  0  0  0  0  0  0  0  0  0
  139.2409  149.1659  137.6733 C   0  0  0  0  0  0  0  0  0  0  0  0
  1  2  1  0
  2  3  2  3
  1  4  3  0
  3  5  1  0
  3  6  1  0
  4  7  1  0
  7  8  2  0
  7  9  1  0
  8 10  1  0
  9 11  2  0
 10 12  2  0
 11 12  1  0
M  END
$$$$

     RDKit          3D

 12 13  0  0  0  0  0  0  0  0999 V2000
  140.3036  150.2148  139.4783 Cl  0  0  0  0  0  0  0  0  0  0  0  0
  138.6783  150.1860  140.5319 C   0  0  0  0  0  0  0  0  0  0  0  0
  137.6385  149.3831  140.0945 C   0  0  0  0  0  0  0  0  0  0  0  0
  136.4392  149.4569  140.8209 C   0  0  0  0  0  0  0  0  0  0  0  0
  138.9819  150.6978  141.6811 C   0  0  0  0  0  0  0  0  0  0  0  0
  136.5079  150.3497  141.8163 C   0  0  0  0  0  0  0  0  0  0  0  0
  135.2761  150.6086  142.7157 C   0  0  0  0  0  0  0  0  0  0  0  0
  135.7352  151.2618  143.9974 C   0  0  0  0  0  0  0  0  0  0  0  0
  136.5566  152.2474  144.0879 C   0  0  0  0  0  0  0  0  0  0  0  0
  136.8077  153.0158  145.3189 C   0  0  0  0  0  0  0  0  0  0  0  0
  137.8587  150.9823  142.3813 C   0  0  0  0  0  0  0  0  0  0  0  0
  138.0687  151.6978  143.5554 C   0  0  0  0  0  0  0  0  0  0  0  0
  1  2  1  0
  2  3  2  0
  3  4  1  0
  2  5  1  0
  4  6  2  0
  6  7  1  0
  7  8  1  0
  8  9  2  0
  9 10  1  0
  5 11  2  0
  6 11  1  0
  9 12  1  0
 11 12  1  0
M  END
$$$$

     RDKit          3D

 12 13  0  0  0  0  0  0  0  0999 V2000
  140.3036  150.2148  139.4783 Cl  0  0  0  0  0  0  0  0  0  0  0  0
  138.6783  150.1860  140.5319 C   0  0  0  0  0  0  0  0  0  0  0  0
  137.6385  149.3831  140.0945 C   0  0  0  0  0  0  0  0  0  0  0  0
  136.4392  149.4569  140.8209 C   0  0  0  0  0  0  0  0  0  0  0  0
  138.9819  150.6978  141.6811 C   0  0  0  0  0  0  0  0  0  0  0  0
  136.5079  150.3497  141.8163 C   0  0  0  0  0  0  0  0  0  0  0  0
  135.2761  150.6086  142.7157 C   0  0  0  0  0  0  0  0  0  0  0  0
  135.7352  151.2618  143.9974 C   0  0  0  0  0  0  0  0  0  0  0  0
  137.6958  150.8860  142.4834 C   0  0  0  0  0  0  0  0  0  0  0  0
  134.7941  151.6733  145.0147 C   0  0  0  0  0  0  0  0  0  0  0  0
  135.3918  152.3710  146.1733 C   0  0  0  0  0  0  0  0  0  0  0  0
  137.1453  151.5932  144.0721 C   0  0  0  0  0  0  0  0  0  0  0  0
  1  2  1  0
  2  3  2  0
  3  4  1  0
  2  5  1  0
  4  6  2  0
  6  7  1  0
  7  8  2  0
  5  9  2  0
  6  9  1  0
  8 10  1  0
 10 11  1  0
  8 12  1  0
  9 12  1  0
M  END
$$$$

     RDKit          3D

 12 13  0  0  0  0  0  0  0  0999 V2000
  140.3036  150.2148  139.4783 Cl  0  0  0  0  0  0  0  0  0  0  0  0
  138.6783  150.1860  140.5319 C   0  0  0  0  0  0  0  0  0  0  0  0
  137.6385  149.3831  140.0945 C   0  0  0  0  0  0  0  0  0  0  0  0
  138.7505  150.9487  141.6715 C   0  0  0  0  0  0  0  0  0  0  0  0
  136.4550  149.4179  140.9244 C   0  0  0  0  0  0  0  0  0  0  0  0
  136.4022  150.2880  142.0367 C   0  0  0  0  0  0  0  0  0  0  0  0
  135.2043  150.3942  142.8889 C   0  0  0  0  0  0  0  0  0  0  0  0
  135.4985  151.1747  144.1387 C   0  0  0  0  0  0  0  0  0  0  0  0
  137.5869  150.9826  142.5058 C   0  0  0  0  0  0  0  0  0  0  0  0
  137.6010  151.7157  143.7894 C   0  0  0  0  0  0  0  0  0  0  0  0
  136.4189  151.6953  144.5548 C   0  0  0  0  0  0  0  0  0  0  0  0
  136.3515  152.5131  146.0281 Cl  0  0  0  0  0  0  0  0  0  0  0  0
  1  2  1  0
  2  3  2  0
  2  4  1  0
  3  5  1  0
  5  6  2  0
  6  7  1  0
  7  8  2  0
  4  9  2  0
  6  9  1  0
  9 10  1  0
  8 11  1  0
 10 11  2  0
 11 12  1  0
M  END
$$$$

     RDKit          3D

 12 13  0  0  0  0  0  0  0  0999 V2000
  139.0004  149.7631  140.3649 C   0  0  0  0  0  0  0  0  0  0  0  0
  138.7142  149.5451  139.1249 C   0  0  0  0  0  0  0  0  0  0  0  0
  138.1856  150.1072  141.2839 C   0  0  0  0  0  0  0  0  0  0  0  0
  137.3213  149.5926  138.6821 C   0  0  0  0  0  0  0  0  0  0  0  0
  136.3776  149.8122  139.7323 C   0  0  0  0  0  0  0  0  0  0  0  0
  138.6498  150.4524  142.6761 C   0  0  0  0  0  0  0  0  0  0  0  0
  137.8095  150.9703  143.6446 C   0  0  0  0  0  0  0  0  0  0  0  0
  136.5355  151.0899  143.2204 C   0  0  0  0  0  0  0  0  0  0  0  0
  135.6032  151.5335  144.2586 C   0  0  0  0  0  0  0  0  0  0  0  0
  136.7857  150.1764  141.0427 C   0  0  0  0  0  0  0  0  0  0  0  0
  136.0480  150.5864  142.0177 C   0  0  0  0  0  0  0  0  0  0  0  0
  136.0161  152.0403  145.3136 N   0  0  0  0  0  0  0  0  0  0  0  0
  1  2  2  0
  1  3  1  0
  2  4  1  0
  4  5  2  0
  3  6  1  0
  6  7  2  0
  7  8  1  0
  8  9  1  0
  3 10  2  0
  5 10  1  0
  8 11  2  0
 10 11  1  0
  9 12  2  0
M  END
$$$$

     RDKit          3D

 12 13  0  0  0  0  0  0  0  0999 V2000
  139.0004  149.7631  140.3649 C   0  0  0  0  0  0  0  0  0  0  0  0
  139.7623  150.8543  140.7370 C   0  0  0  0  0  0  0  0  0  0  0  0
  139.2605  149.1459  139.1745 C   0  0  0  0  0  0  0  0  0  0  0  0
  139.5454  151.5142  142.0095 C   0  0  0  0  0  0  0  0  0  0  0  0
  138.4600  150.9915  142.6960 C   0  0  0  0  0  0  0  0  0  0  0  0
  137.8908  149.5533  141.2205 C   0  0  0  0  0  0  0  0  0  0  0  0
  138.2361  151.6729  144.1109 C   0  0  0  0  0  0  0  0  0  0  0  0
  136.9034  151.6291  144.5714 C   0  0  0  0  0  0  0  0  0  0  0  0
  135.9882  150.9839  143.8409 C   0  0  0  0  0  0  0  0  0  0  0  0
  137.5384  150.1688  142.3210 C   0  0  0  0  0  0  0  0  0  0  0  0
  136.3869  150.1471  142.8959 C   0  0  0  0  0  0  0  0  0  0  0  0
  136.6807  152.5410  145.9474 C   0  0  0  0  0  0  0  0  0  0  0  0
  1  2  2  0
  1  3  1  0
  2  4  1  0
  4  5  2  0
  1  6  1  0
  5  7  1  0
  7  8  2  0
  8  9  1  0
  5 10  1  0
  6 10  2  0
  9 11  2  0
 10 11  1  0
  8 12  1  0
M  END
$$$$

     RDKit          3D

 12 12  0  0  0  0  0  0  0  0999 V2000
  140.3036  150.2148  139.4783 Cl  0  0  0  0  0  0  0  0  0  0  0  0
  138.6783  150.1860  140.5319 C   0  0  0  0  0  0  0  0  0  0  0  0
  137.6385  149.3831  140.0945 C   0  0  0  0  0  0  0  0  0  0  0  0
  138.7505  150.9487  141.6715 C   0  0  0  0  0  0  0  0  0  0  0  0
  136.5606  149.6034  140.7973 C   0  0  0  0  0  0  0  0  0  0  0  0
  136.3933  150.3970  141.9259 C   0  0  0  0  0  0  0  0  0  0  0  0
  135.1767  150.5746  142.7425 C   0  0  0  0  0  0  0  0  0  0  0  0
  135.6228  151.2741  143.9969 C   0  0  0  0  0  0  0  0  0  0  0  0
  134.8095  151.6415  145.0435 C   0  0  0  0  0  0  0  0  0  0  0  0
  133.6651  151.4000  145.3589 C   0  0  0  0  0  0  0  0  0  0  0  0
  135.6637  152.5925  145.9944 C   0  0  0  0  0  0  0  0  0  0  0  0
  137.6412  151.0770  142.4178 C   0  0  0  0  0  0  0  0  0  0  0  0
  1  2  1  0
  2  3  2  0
  2  4  1  0
  3  5  1  0
  5  6  2  0
  6  7  1  0
  7  8  2  3
  8  9  1  0
  9 10  2  0
  9 11  1  0
  4 12  2  0
  6 12  1  0
M  END
$$$$

     RDKit          3D

 12 13  0  0  0  0  0  0  0  0999 V2000
  140.3036  150.2148  139.4783 Cl  0  0  0  0  0  0  0  0  0  0  0  0
  138.6783  150.1860  140.5319 C   0  0  0  0  0  0  0  0  0  0  0  0
  137.6385  149.3831  140.0945 C   0  0  0  0  0  0  0  0  0  0  0  0
  138.7505  150.9487  141.6715 C   0  0  0  0  0  0  0  0  0  0  0  0
  136.4550  149.4179  140.9244 C   0  0  0  0  0  0  0  0  0  0  0  0
  136.4022  150.2880  142.0367 C   0  0  0  0  0  0  0  0  0  0  0  0
  135.2043  150.3942  142.8889 C   0  0  0  0  0  0  0  0  0  0  0  0
  135.4985  151.1747  144.1387 C   0  0  0  0  0  0  0  0  0  0  0  0
  137.6375  151.0354  142.5192 C   0  0  0  0  0  0  0  0  0  0  0  0
  137.6080  151.7472  143.8401 C   0  0  0  0  0  0  0  0  0  0  0  0
  136.5430  151.7834  144.5920 C   0  0  0  0  0  0  0  0  0  0  0  0
  136.5788  152.5093  145.8457 C   0  0  0  0  0  0  0  0  0  0  0  0
  1  2  1  0
  2  3  2  0
  2  4  1  0
  3  5  1  0
  5  6  2  0
  6  7  1  0
  7  8  2  0
  4  9  2  0
  6  9  1  0
  9 10  1  0
  8 11  1  0
 10 11  2  0
 11 12  1  0
M  END
$$$$

     RDKit          3D

 12 13  0  0  0  0  0  0  0  0999 V2000
  140.3036  150.2148  139.4783 Cl  0  0  0  0  0  0  0  0  0  0  0  0
  138.6783  150.1860  140.5319 C   0  0  0  0  0  0  0  0  0  0  0  0
  137.6385  149.3831  140.0945 C   0  0  0  0  0  0  0  0  0  0  0  0
  138.8668  150.7183  141.4516 C   0  0  0  0  0  0  0  0  0  0  0  0
  138.3194  150.9395  142.2987 C   0  0  0  0  0  0  0  0  0  0  0  0
  136.9007  150.1342  142.2766 C   0  0  0  0  0  0  0  0  0  0  0  0
  136.0346  150.4104  143.3393 C   0  0  0  0  0  0  0  0  0  0  0  0
  137.4083  148.7821  138.9116 C   0  0  0  0  0  0  0  0  0  0  0  0
  136.5594  149.5457  141.0880 C   0  0  0  0  0  0  0  0  0  0  0  0
  138.4804  151.6715  143.7636 C   0  0  0  0  0  0  0  0  0  0  0  0
  137.3661  151.8338  144.4131 C   0  0  0  0  0  0  0  0  0  0  0  0
  136.4158  151.2737  144.4021 C   0  0  0  0  0  0  0  0  0  0  0  0
  1  2  1  0
  2  3  2  0
  2  4  1  0
  4  5  2  0
  5  6  1  0
  6  7  1  0
  3  8  1  0
  3  9  1  0
  6  9  2  0
  5 10  1  0
 10 11  1  0
  7 12  1  0
 11 12  1  0
M  END
$$$$

     RDKit          3D

 12 13  0  0  0  0  0  0  0  0999 V2000
  139.5348  150.8906  142.2305 C   0  0  0  0  0  0  0  0  0  0  0  0
  139.0139  150.3976  141.0574 C   0  0  0  0  0  0  0  0  0  0  0  0
  138.6965  150.9489  143.4028 C   0  0  0  0  0  0  0  0  0  0  0  0
  137.7130  149.9460  141.0427 C   0  0  0  0  0  0  0  0  0  0  0  0
  137.5183  150.9374  143.4785 C   0  0  0  0  0  0  0  0  0  0  0  0
  136.6733  151.1274  144.6812 C   0  0  0  0  0  0  0  0  0  0  0  0
  139.8472  150.3901  139.8637 C   0  0  0  0  0  0  0  0  0  0  0  0
  136.7200  150.2063  141.8846 C   0  0  0  0  0  0  0  0  0  0  0  0
  136.4930  150.6203  143.0434 C   0  0  0  0  0  0  0  0  0  0  0  0
  135.8664  151.8203  144.7141 C   0  0  0  0  0  0  0  0  0  0  0  0
  135.2290  151.3391  143.4663 N   0  0  0  0  0  0  0  0  0  0  0  0
  139.3579  150.4359  138.6479 C   0  0  0  0  0  0  0  0  0  0  0  0
  1  2  2  0
  1  3  1  0
  2  4  1  0
  3  5  2  0
  5  6  1  0
  2  7  1  0
  4  8  2  0
  5  9  1  0
  8  9  1  0
  6 10  2  0
  9 11  2  0
 10 11  1  0
  7 12  2  0
M  END
$$$$

     RDKit          3D

 12 12  0  0  0  0  0  0  0  0999 V2000
  138.9705  151.3124  142.5681 C   0  0  0  0  0  0  0  0  0  0  0  0
  138.6057  152.0894  143.2653 C   0  0  0  0  0  0  0  0  0  0  0  0
  137.5209  151.8314  144.2019 C   0  0  0  0  0  0  0  0  0  0  0  0
  136.5811  152.7823  144.6505 C   0  0  0  0  0  0  0  0  0  0  0  0
  139.7956  151.3595  141.3741 C   0  0  0  0  0  0  0  0  0  0  0  0
  135.9804  152.8193  145.6528 C   0  0  0  0  0  0  0  0  0  0  0  0
  139.5360  150.6466  140.2953 C   0  0  0  0  0  0  0  0  0  0  0  0
  136.0633  151.5366  146.3570 C   0  0  0  0  0  0  0  0  0  0  0  0
  138.3949  149.8648  140.3621 C   0  0  0  0  0  0  0  0  0  0  0  0
  137.2544  150.6517  144.9179 C   0  0  0  0  0  0  0  0  0  0  0  0
  135.2489  151.5097  147.6255 C   0  0  0  0  0  0  0  0  0  0  0  0
  136.5777  150.4156  145.9210 C   0  0  0  0  0  0  0  0  0  0  0  0
  1  2  2  3
  2  3  1  0
  3  4  1  0
  1  5  1  0
  4  6  2  0
  5  7  2  3
  6  8  1  0
  7  9  1  0
  3 10  2  0
  8 11  1  0
  8 12  2  0
 10 12  1  0
M  END
$$$$

     RDKit          3D

 12 13  0  0  0  0  0  0  0  0999 V2000
  140.3036  150.2148  139.4783 Cl  0  0  0  0  0  0  0  0  0  0  0  0
  138.6783  150.1860  140.5319 C   0  0  0  0  0  0  0  0  0  0  0  0
  137.6385  149.3831  140.0945 C   0  0  0  0  0  0  0  0  0  0  0  0
  136.4392  149.4569  140.8209 C   0  0  0  0  0  0  0  0  0  0  0  0
  138.9819  150.6978  141.6811 C   0  0  0  0  0  0  0  0  0  0  0  0
  136.5079  150.3497  141.8163 C   0  0  0  0  0  0  0  0  0  0  0  0
  135.2761  150.6086  142.7157 C   0  0  0  0  0  0  0  0  0  0  0  0
  135.7352  151.2618  143.9974 C   0  0  0  0  0  0  0  0  0  0  0  0
  134.9147  151.6768  145.0049 C   0  0  0  0  0  0  0  0  0  0  0  0
  137.6945  150.9112  142.4441 C   0  0  0  0  0  0  0  0  0  0  0  0
  137.6943  151.5746  143.7693 C   0  0  0  0  0  0  0  0  0  0  0  0
  136.8076  151.6781  144.5483 N   0  0  0  0  0  0  0  0  0  0  0  0
  1  2  1  0
  2  3  2  0
  3  4  1  0
  2  5  1  0
  4  6  2  0
  6  7  1  0
  7  8  2  0
  8  9  1  0
  5 10  2  0
  6 10  1  0
 10 11  1  0
  8 12  1  0
 11 12  2  0
M  END
$$$$

     RDKit          3D

 12 12  0  0  0  0  0  0  0  0999 V2000
  140.3036  150.2148  139.4783 Cl  0  0  0  0  0  0  0  0  0  0  0  0
  138.6783  150.1860  140.5319 C   0  0  0  0  0  0  0  0  0  0  0  0
  137.6385  149.3831  140.0945 C   0  0  0  0  0  0  0  0  0  0  0  0
  138.7505  150.9487  141.6715 C   0  0  0  0  0  0  0  0  0  0  0  0
  136.5606  149.6034  140.7973 C   0  0  0  0  0  0  0  0  0  0  0  0
  135.2960  149.0163  140.1852 C   0  0  0  0  0  0  0  0  0  0  0  0
  136.5422  150.4642  141.8563 C   0  0  0  0  0  0  0  0  0  0  0  0
  135.3353  150.6737  142.7430 C   0  0  0  0  0  0  0  0  0  0  0  0
  135.7908  151.4836  143.9525 C   0  0  0  0  0  0  0  0  0  0  0  0
  135.1610  151.6622  145.0840 C   0  0  0  0  0  0  0  0  0  0  0  0
  135.5551  152.7483  146.0361 C   0  0  0  0  0  0  0  0  0  0  0  0
  137.8378  151.0834  142.3050 C   0  0  0  0  0  0  0  0  0  0  0  0
  1  2  1  0
  2  3  2  0
  2  4  1  0
  3  5  1  0
  5  6  1  0
  5  7  2  0
  7  8  1  0
  8  9  1  0
  9 10  1  0
 10 11  1  0
  4 12  2  0
  7 12  1  0
M  END
$$$$

     RDKit          3D

 12 13  0  0  0  0  0  0  0  0999 V2000
  138.7090  151.1469  142.6269 C   0  0  0  0  0  0  0  0  0  0  0  0
  138.5260  151.9370  143.5114 C   0  0  0  0  0  0  0  0  0  0  0  0
  137.3819  151.6579  144.3963 C   0  0  0  0  0  0  0  0  0  0  0  0
  139.7051  151.1184  141.6077 C   0  0  0  0  0  0  0  0  0  0  0  0
  136.7072  150.4347  144.0265 C   0  0  0  0  0  0  0  0  0  0  0  0
  139.4496  150.8400  140.3164 C   0  0  0  0  0  0  0  0  0  0  0  0
  138.1688  150.1903  140.1998 C   0  0  0  0  0  0  0  0  0  0  0  0
  137.8593  149.7371  138.7840 C   0  0  0  0  0  0  0  0  0  0  0  0
  137.7643  150.0553  142.2577 C   0  0  0  0  0  0  0  0  0  0  0  0
  137.4015  149.7715  141.2341 C   0  0  0  0  0  0  0  0  0  0  0  0
  135.8025  150.1295  145.2153 C   0  0  0  0  0  0  0  0  0  0  0  0
  137.0542  149.6095  143.0953 N   0  0  0  0  0  0  0  0  0  0  0  0
  1  2  1  0
  2  3  2  0
  1  4  1  0
  3  5  1  0
  4  6  2  0
  6  7  1  0
  7  8  1  0
  1  9  2  0
  7 10  2  0
  9 10  1  0
  5 11  1  0
  5 12  2  0
  9 12  1  0
M  END
$$$$

     RDKit          3D

 12 13  0  0  0  0  0  0  0  0999 V2000
  139.5348  150.8906  142.2305 C   0  0  0  0  0  0  0  0  0  0  0  0
  139.0139  150.3976  141.0574 C   0  0  0  0  0  0  0  0  0  0  0  0
  138.6965  150.9489  143.4028 C   0  0  0  0  0  0  0  0  0  0  0  0
  137.7130  149.9460  141.0427 C   0  0  0  0  0  0  0  0  0  0  0  0
  137.5183  150.9374  143.4785 C   0  0  0  0  0  0  0  0  0  0  0  0
  136.6733  151.1274  144.6812 C   0  0  0  0  0  0  0  0  0  0  0  0
  139.8472  150.3901  139.8637 C   0  0  0  0  0  0  0  0  0  0  0  0
  136.7200  150.2063  141.8846 C   0  0  0  0  0  0  0  0  0  0  0  0
  136.4930  150.6203  143.0434 C   0  0  0  0  0  0  0  0  0  0  0  0
  139.3609  150.4992  138.6511 C   0  0  0  0  0  0  0  0  0  0  0  0
  141.0593  150.6025  140.2414 O   0  0  0  0  0  0  0  0  0  0  0  0
  135.4408  151.0137  143.8327 C   0  0  0  0  0  0  0  0  0  0  0  0
  1  2  2  0
  1  3  1  0
  2  4  1  0
  3  5  2  0
  5  6  1  0
  2  7  1  0
  4  8  2  0
  5  9  1  0
  8  9  1  0
  7 10  1  0
  7 11  2  0
  6 12  1  0
  9 12  2  0
M  END
$$$$

     RDKit          3D

 12 13  0  0  0  0  0  0  0  0999 V2000
  140.3036  150.2148  139.4783 Cl  0  0  0  0  0  0  0  0  0  0  0  0
  138.6783  150.1860  140.5319 C   0  0  0  0  0  0  0  0  0  0  0  0
  137.6385  149.3831  140.0945 C   0  0  0  0  0  0  0  0  0  0  0  0
  139.2417  150.7158  141.5756 C   0  0  0  0  0  0  0  0  0  0  0  0
  138.3592  151.0505  142.3777 C   0  0  0  0  0  0  0  0  0  0  0  0
  136.5124  149.6312  140.9991 C   0  0  0  0  0  0  0  0  0  0  0  0
  135.2128  149.3326  140.8083 C   0  0  0  0  0  0  0  0  0  0  0  0
  136.9238  150.5296  142.3413 C   0  0  0  0  0  0  0  0  0  0  0  0
  138.1720  151.6081  143.9231 C   0  0  0  0  0  0  0  0  0  0  0  0
  137.1873  151.4526  144.6734 C   0  0  0  0  0  0  0  0  0  0  0  0
  136.4033  150.4975  144.5871 C   0  0  0  0  0  0  0  0  0  0  0  0
  135.9730  150.1589  143.2599 C   0  0  0  0  0  0  0  0  0  0  0  0
  1  2  1  0
  2  3  1  0
  2  4  2  0
  4  5  1  0
  3  6  2  0
  6  7  1  0
  5  8  2  0
  6  8  1  0
  5  9  1  0
  9 10  1  0
 10 11  2  0
  8 12  1  0
 11 12  1  0
M  END
$$$$

     RDKit          3D

 12 13  0  0  0  0  0  0  0  0999 V2000
  139.3427  149.9935  140.5880 C   0  0  0  0  0  0  0  0  0  0  0  0
  138.9528  149.9224  139.3656 C   0  0  0  0  0  0  0  0  0  0  0  0
  138.6122  150.1102  141.6416 C   0  0  0  0  0  0  0  0  0  0  0  0
  137.1910  149.8704  141.8331 C   0  0  0  0  0  0  0  0  0  0  0  0
  136.5134  149.7658  140.5812 C   0  0  0  0  0  0  0  0  0  0  0  0
  139.1788  150.4012  143.1353 C   0  0  0  0  0  0  0  0  0  0  0  0
  138.2249  150.9731  144.0852 C   0  0  0  0  0  0  0  0  0  0  0  0
  136.4855  150.1086  143.0259 C   0  0  0  0  0  0  0  0  0  0  0  0
  136.9884  150.6188  144.0665 C   0  0  0  0  0  0  0  0  0  0  0  0
  135.1984  149.6017  140.4361 C   0  0  0  0  0  0  0  0  0  0  0  0
  137.4428  149.7184  139.3476 C   0  0  0  0  0  0  0  0  0  0  0  0
  136.0175  151.0035  145.4247 C   0  0  0  0  0  0  0  0  0  0  0  0
  1  2  2  0
  1  3  1  0
  3  4  1  0
  4  5  2  0
  3  6  1  0
  6  7  2  0
  4  8  1  0
  7  9  1  0
  8  9  2  0
  5 10  1  0
  2 11  1  0
  5 11  1  0
  9 12  1  0
M  END
$$$$

     RDKit          3D

 12 13  0  0  0  0  0  0  0  0999 V2000
  140.3036  150.2148  139.4783 Cl  0  0  0  0  0  0  0  0  0  0  0  0
  138.6783  150.1860  140.5319 C   0  0  0  0  0  0  0  0  0  0  0  0
  137.6385  149.3831  140.0945 C   0  0  0  0  0  0  0  0  0  0  0  0
  138.8668  150.7183  141.4516 C   0  0  0  0  0  0  0  0  0  0  0  0
  138.3194  150.9395  142.2987 C   0  0  0  0  0  0  0  0  0  0  0  0
  136.9007  150.1342  142.2766 C   0  0  0  0  0  0  0  0  0  0  0  0
  136.0346  150.4104  143.3393 C   0  0  0  0  0  0  0  0  0  0  0  0
  137.4083  148.7821  138.9116 C   0  0  0  0  0  0  0  0  0  0  0  0
  136.5594  149.5457  141.0880 C   0  0  0  0  0  0  0  0  0  0  0  0
  138.4804  151.6715  143.7636 C   0  0  0  0  0  0  0  0  0  0  0  0
  137.3661  151.8338  144.4131 C   0  0  0  0  0  0  0  0  0  0  0  0
  136.4158  151.2737  144.4021 C   0  0  0  0  0  0  0  0  0  0  0  0
  1  2  1  0
  2  3  2  0
  2  4  1  0
  4  5  2  0
  5  6  1  0
  6  7  1  0
  3  8  1  0
  3  9  1  0
  6  9  2  0
  5 10  1  0
 10 11  1  0
  7 12  1  0
 11 12  2  0
M  END
$$$$

     RDKit          3D

 12 13  0  0  0  0  0  0  0  0999 V2000
  138.7090  151.1469  142.6269 C   0  0  0  0  0  0  0  0  0  0  0  0
  138.5260  151.9370  143.5114 C   0  0  0  0  0  0  0  0  0  0  0  0
  137.3819  151.6579  144.3963 C   0  0  0  0  0  0  0  0  0  0  0  0
  139.7051  151.1184  141.6077 C   0  0  0  0  0  0  0  0  0  0  0  0
  136.7557  152.5772  145.3074 C   0  0  0  0  0  0  0  0  0  0  0  0
  139.6288  150.4580  140.3315 C   0  0  0  0  0  0  0  0  0  0  0  0
  138.4571  149.6004  140.4454 C   0  0  0  0  0  0  0  0  0  0  0  0
  135.4568  152.3937  145.7654 C   0  0  0  0  0  0  0  0  0  0  0  0
  137.5807  149.8923  141.3497 C   0  0  0  0  0  0  0  0  0  0  0  0
  140.5769  150.5648  139.3519 C   0  0  0  0  0  0  0  0  0  0  0  0
  137.6871  150.4814  142.4501 C   0  0  0  0  0  0  0  0  0  0  0  0
  136.6902  150.4341  144.0126 C   0  0  0  0  0  0  0  0  0  0  0  0
  1  2  1  0
  2  3  2  0
  1  4  1  0
  3  5  1  0
  4  6  2  0
  6  7  1  0
  5  8  1  0
  7  9  2  0
  6 10  1  0
  1 11  2  0
  9 11  1  0
  3 12  1  0
 11 12  1  0
M  END
$$$$

     RDKit          3D

 12 13  0  0  0  0  0  0  0  0999 V2000
  140.3036  150.2148  139.4783 Cl  0  0  0  0  0  0  0  0  0  0  0  0
  138.6783  150.1860  140.5319 C   0  0  0  0  0  0  0  0  0  0  0  0
  137.6385  149.3831  140.0945 C   0  0  0  0  0  0  0  0  0  0  0  0
  138.8668  150.7183  141.4516 C   0  0  0  0  0  0  0  0  0  0  0  0
  138.3194  150.9395  142.2987 C   0  0  0  0  0  0  0  0  0  0  0  0
  136.9007  150.1342  142.2766 C   0  0  0  0  0  0  0  0  0  0  0  0
  136.0346  150.4104  143.3393 C   0  0  0  0  0  0  0  0  0  0  0  0
  137.4083  148.7821  138.9116 C   0  0  0  0  0  0  0  0  0  0  0  0
  136.2303  150.8330  144.4742 C   0  0  0  0  0  0  0  0  0  0  0  0
  137.5716  151.4791  144.6535 C   0  0  0  0  0  0  0  0  0  0  0  0
  136.5477  149.5126  141.0992 C   0  0  0  0  0  0  0  0  0  0  0  0
  138.3196  151.5531  143.5319 C   0  0  0  0  0  0  0  0  0  0  0  0
  1  2  1  0
  2  3  2  0
  2  4  1  0
  4  5  2  0
  5  6  1  0
  6  7  1  0
  3  8  1  0
  7  9  2  0
  9 10  1  0
  3 11  1  0
  6 11  2  0
  5 12  1  0
 10 12  2  0
M  END
$$$$

     RDKit          3D

 12 13  0  0  0  0  0  0  0  0999 V2000
  139.3427  149.9935  140.5880 C   0  0  0  0  0  0  0  0  0  0  0  0
  138.9528  149.9224  139.3656 C   0  0  0  0  0  0  0  0  0  0  0  0
  138.6122  150.1102  141.6416 C   0  0  0  0  0  0  0  0  0  0  0  0
  137.5740  149.8706  139.0588 C   0  0  0  0  0  0  0  0  0  0  0  0
  137.0940  149.4943  137.8146 C   0  0  0  0  0  0  0  0  0  0  0  0
  136.7645  149.9138  140.3205 C   0  0  0  0  0  0  0  0  0  0  0  0
  139.1419  150.2992  143.0591 C   0  0  0  0  0  0  0  0  0  0  0  0
  135.2763  150.0038  140.1434 C   0  0  0  0  0  0  0  0  0  0  0  0
  138.2067  150.7700  144.0868 C   0  0  0  0  0  0  0  0  0  0  0  0
  137.1795  151.3078  143.7702 C   0  0  0  0  0  0  0  0  0  0  0  0
  137.2330  150.1645  141.5792 C   0  0  0  0  0  0  0  0  0  0  0  0
  136.4026  150.7985  142.6183 C   0  0  0  0  0  0  0  0  0  0  0  0
  1  2  2  0
  1  3  1  0
  2  4  1  0
  4  5  1  0
  4  6  2  0
  3  7  1  0
  6  8  1  0
  7  9  2  0
  9 10  1  0
  3 11  2  0
  6 11  1  0
 10 12  2  0
 11 12  1  0
M  END
$$$$

     RDKit          3D

 12 12  0  0  0  0  0  0  0  0999 V2000
  138.7090  151.1469  142.6269 C   0  0  0  0  0  0  0  0  0  0  0  0
  138.5260  151.9370  143.5114 C   0  0  0  0  0  0  0  0  0  0  0  0
  137.3819  151.6579  144.3963 C   0  0  0  0  0  0  0  0  0  0  0  0
  139.7051  151.1184  141.6077 C   0  0  0  0  0  0  0  0  0  0  0  0
  136.7557  152.5772  145.3074 C   0  0  0  0  0  0  0  0  0  0  0  0
  139.6288  150.4580  140.3315 C   0  0  0  0  0  0  0  0  0  0  0  0
  138.4571  149.6004  140.4454 C   0  0  0  0  0  0  0  0  0  0  0  0
  137.8336  150.0445  142.3293 C   0  0  0  0  0  0  0  0  0  0  0  0
  140.4666  150.5862  139.2787 C   0  0  0  0  0  0  0  0  0  0  0  0
  138.2219  148.9494  139.1317 C   0  0  0  0  0  0  0  0  0  0  0  0
  137.6010  149.4885  141.4275 C   0  0  0  0  0  0  0  0  0  0  0  0
  135.4811  152.3482  145.7942 C   0  0  0  0  0  0  0  0  0  0  0  0
  1  2  1  0
  2  3  2  3
  1  4  1  0
  3  5  1  0
  4  6  2  0
  6  7  1  0
  1  8  2  0
  6  9  1  0
  7 10  1  0
  7 11  2  0
  8 11  1  0
  5 12  1  0
M  END
$$$$

     RDKit          3D

 12 12  0  0  0  0  0  0  0  0999 V2000
  139.0004  149.7631  140.3649 C   0  0  0  0  0  0  0  0  0  0  0  0
  139.7623  150.8543  140.7370 C   0  0  0  0  0  0  0  0  0  0  0  0
  139.2605  149.1459  139.1745 C   0  0  0  0  0  0  0  0  0  0  0  0
  139.5454  151.5142  142.0095 C   0  0  0  0  0  0  0  0  0  0  0  0
  138.4600  150.9915  142.6960 C   0  0  0  0  0  0  0  0  0  0  0  0
  137.8908  149.5533  141.2205 C   0  0  0  0  0  0  0  0  0  0  0  0
  138.2361  151.6729  144.1109 C   0  0  0  0  0  0  0  0  0  0  0  0
  136.9034  151.6291  144.5714 C   0  0  0  0  0  0  0  0  0  0  0  0
  136.5732  152.3241  145.7893 C   0  0  0  0  0  0  0  0  0  0  0  0
  135.3709  153.0364  145.6817 C   0  0  0  0  0  0  0  0  0  0  0  0
  136.9789  148.5894  140.5063 C   0  0  0  0  0  0  0  0  0  0  0  0
  137.6786  150.1777  142.4837 N   0  0  0  0  0  0  0  0  0  0  0  0
  1  2  2  0
  1  3  1  0
  2  4  1  0
  4  5  2  0
  1  6  1  0
  5  7  1  0
  7  8  2  3
  8  9  1  0
  9 10  1  0
  6 11  1  0
  5 12  1  0
  6 12  2  0
M  END
$$$$

     RDKit          3D

 12 13  0  0  0  0  0  0  0  0999 V2000
  139.5348  150.8906  142.2305 C   0  0  0  0  0  0  0  0  0  0  0  0
  139.0139  150.3976  141.0574 C   0  0  0  0  0  0  0  0  0  0  0  0
  138.6965  150.9489  143.4028 C   0  0  0  0  0  0  0  0  0  0  0  0
  137.7130  149.9460  141.0427 C   0  0  0  0  0  0  0  0  0  0  0  0
  137.5183  150.9374  143.4785 C   0  0  0  0  0  0  0  0  0  0  0  0
  136.6733  151.1274  144.6812 C   0  0  0  0  0  0  0  0  0  0  0  0
  139.8472  150.3901  139.8637 C   0  0  0  0  0  0  0  0  0  0  0  0
  136.7200  150.2063  141.8846 C   0  0  0  0  0  0  0  0  0  0  0  0
  136.4930  150.6203  143.0434 C   0  0  0  0  0  0  0  0  0  0  0  0
  135.4267  151.4029  144.6116 C   0  0  0  0  0  0  0  0  0  0  0  0
  135.1366  150.8679  143.3605 C   0  0  0  0  0  0  0  0  0  0  0  0
  139.3586  150.4290  138.6493 C   0  0  0  0  0  0  0  0  0  0  0  0
  1  2  2  0
  1  3  1  0
  2  4  1  0
  3  5  2  0
  5  6  1  0
  2  7  1  0
  4  8  2  0
  5  9  1  0
  8  9  1  0
  6 10  2  0
  9 11  2  0
 10 11  1  0
  7 12  2  0
M  END
$$$$

     RDKit          3D

 12 12  0  0  0  0  0  0  0  0999 V2000
  140.3036  150.2148  139.4783 Cl  0  0  0  0  0  0  0  0  0  0  0  0
  138.6783  150.1860  140.5319 C   0  0  0  0  0  0  0  0  0  0  0  0
  137.6385  149.3831  140.0945 C   0  0  0  0  0  0  0  0  0  0  0  0
  138.8668  150.7183  141.4516 C   0  0  0  0  0  0  0  0  0  0  0  0
  138.3194  150.9395  142.2987 C   0  0  0  0  0  0  0  0  0  0  0  0
  136.9007  150.1342  142.2766 C   0  0  0  0  0  0  0  0  0  0  0  0
  136.0346  150.4104  143.3393 C   0  0  0  0  0  0  0  0  0  0  0  0
  137.4083  148.7821  138.9116 C   0  0  0  0  0  0  0  0  0  0  0  0
  136.4724  151.2971  144.2937 C   0  0  0  0  0  0  0  0  0  0  0  0
  136.5495  149.5544  141.0949 C   0  0  0  0  0  0  0  0  0  0  0  0
  136.8324  152.4819  144.3158 O   0  0  0  0  0  0  0  0  0  0  0  0
  136.4941  150.8574  145.7159 C   0  0  0  0  0  0  0  0  0  0  0  0
  1  2  1  0
  2  3  2  0
  2  4  1  0
  4  5  2  0
  5  6  1  0
  6  7  1  0
  3  8  1  0
  7  9  1  0
  3 10  1  0
  6 10  2  0
  9 11  2  0
  9 12  1  0
M  END
$$$$

     RDKit          3D

 12 13  0  0  0  0  0  0  0  0999 V2000
  140.3036  150.2148  139.4783 Cl  0  0  0  0  0  0  0  0  0  0  0  0
  138.6783  150.1860  140.5319 C   0  0  0  0  0  0  0  0  0  0  0  0
  137.6385  149.3831  140.0945 C   0  0  0  0  0  0  0  0  0  0  0  0
  139.0332  150.8824  141.6179 C   0  0  0  0  0  0  0  0  0  0  0  0
  136.6575  149.6448  140.8215 C   0  0  0  0  0  0  0  0  0  0  0  0
  135.2931  149.1275  140.2769 C   0  0  0  0  0  0  0  0  0  0  0  0
  136.7024  150.5097  141.8835 C   0  0  0  0  0  0  0  0  0  0  0  0
  135.5279  150.7540  142.7997 C   0  0  0  0  0  0  0  0  0  0  0  0
  136.0533  151.3559  144.1204 C   0  0  0  0  0  0  0  0  0  0  0  0
  137.9729  151.0808  142.3801 C   0  0  0  0  0  0  0  0  0  0  0  0
  137.3413  151.6886  144.2119 C   0  0  0  0  0  0  0  0  0  0  0  0
  138.2169  151.6410  143.5882 C   0  0  0  0  0  0  0  0  0  0  0  0
  1  2  1  0
  2  3  2  0
  2  4  1  0
  3  5  1  0
  5  6  1  0
  5  7  2  0
  7  8  1  0
  8  9  2  0
  4 10  2  0
  7 10  1  0
  9 11  1  0
 10 12  1  0
 11 12  2  0
M  END
$$$$

     RDKit          3D

 12 13  0  0  0  0  0  0  0  0999 V2000
  139.2621  151.0929  142.4047 C   0  0  0  0  0  0  0  0  0  0  0  0
  138.8616  152.1308  142.9039 C   0  0  0  0  0  0  0  0  0  0  0  0
  137.9118  151.7982  143.7822 C   0  0  0  0  0  0  0  0  0  0  0  0
  138.7623  149.7961  142.5205 C   0  0  0  0  0  0  0  0  0  0  0  0
  137.2977  152.8727  144.6398 C   0  0  0  0  0  0  0  0  0  0  0  0
  136.0129  152.6587  145.2579 C   0  0  0  0  0  0  0  0  0  0  0  0
  135.4442  151.4045  145.0716 C   0  0  0  0  0  0  0  0  0  0  0  0
  137.6583  149.7276  143.4422 C   0  0  0  0  0  0  0  0  0  0  0  0
  140.3310  151.1211  141.2583 C   0  0  0  0  0  0  0  0  0  0  0  0
  137.2584  150.7019  144.1553 C   0  0  0  0  0  0  0  0  0  0  0  0
  135.5232  153.7776  145.9590 C   0  0  0  0  0  0  0  0  0  0  0  0
  136.3851  150.4992  144.8781 C   0  0  0  0  0  0  0  0  0  0  0  0
  1  2  1  0
  2  3  2  0
  1  4  2  0
  3  5  1  0
  5  6  2  0
  6  7  1  0
  4  8  1  0
  1  9  1  0
  3 10  1  0
  8 10  2  0
  6 11  1  0
  7 12  1  0
 10 12  1  0
M  END
$$$$

     RDKit          3D

 12 13  0  0  0  0  0  0  0  0999 V2000
  140.3036  150.2148  139.4783 Cl  0  0  0  0  0  0  0  0  0  0  0  0
  138.6783  150.1860  140.5319 C   0  0  0  0  0  0  0  0  0  0  0  0
  137.6385  149.3831  140.0945 C   0  0  0  0  0  0  0  0  0  0  0  0
  138.7505  150.9487  141.6715 C   0  0  0  0  0  0  0  0  0  0  0  0
  136.5606  149.6034  140.7973 C   0  0  0  0  0  0  0  0  0  0  0  0
  136.3933  150.3970  141.9259 C   0  0  0  0  0  0  0  0  0  0  0  0
  135.1767  150.5746  142.7425 C   0  0  0  0  0  0  0  0  0  0  0  0
  135.4785  151.2714  144.0103 C   0  0  0  0  0  0  0  0  0  0  0  0
  136.8856  151.5298  144.2179 C   0  0  0  0  0  0  0  0  0  0  0  0
  137.6940  151.0147  142.4268 C   0  0  0  0  0  0  0  0  0  0  0  0
  136.8824  152.0490  145.8149 C   0  0  0  0  0  0  0  0  0  0  0  0
  137.8296  151.5298  143.5311 N   0  0  0  0  0  0  0  0  0  0  0  0
  1  2  1  0
  2  3  2  0
  2  4  1  0
  3  5  1  0
  5  6  2  0
  6  7  1  0
  7  8  2  0
  8  9  1  0
  4 10  2  0
  6 10  1  0
  9 11  1  0
  9 12  2  0
 10 12  1  0
M  END
$$$$

     RDKit          3D

 12 13  0  0  0  0  0  0  0  0999 V2000
  138.7090  151.1469  142.6269 C   0  0  0  0  0  0  0  0  0  0  0  0
  138.5260  151.9370  143.5114 C   0  0  0  0  0  0  0  0  0  0  0  0
  137.3819  151.6579  144.3963 C   0  0  0  0  0  0  0  0  0  0  0  0
  139.7051  151.1184  141.6077 C   0  0  0  0  0  0  0  0  0  0  0  0
  136.7557  152.5772  145.3074 C   0  0  0  0  0  0  0  0  0  0  0  0
  139.6288  150.4580  140.3315 C   0  0  0  0  0  0  0  0  0  0  0  0
  138.4571  149.6004  140.4454 C   0  0  0  0  0  0  0  0  0  0  0  0
  137.8336  150.0445  142.3293 C   0  0  0  0  0  0  0  0  0  0  0  0
  140.4666  150.5862  139.2787 C   0  0  0  0  0  0  0  0  0  0  0  0
  136.9038  150.0724  143.5173 C   0  0  0  0  0  0  0  0  0  0  0  0
  137.5526  149.3718  141.3283 C   0  0  0  0  0  0  0  0  0  0  0  0
  136.6785  150.5453  144.4421 C   0  0  0  0  0  0  0  0  0  0  0  0
  1  2  1  0
  2  3  2  0
  1  4  1  0
  3  5  1  0
  4  6  2  0
  6  7  1  0
  1  8  2  0
  6  9  1  0
  8 10  1  0
  7 11  2  0
  8 11  1  0
  3 12  1  0
 10 12  2  0
M  END
$$$$

     RDKit          3D

 12 12  0  0  0  0  0  0  0  0999 V2000
  140.3036  150.2148  139.4783 Cl  0  0  0  0  0  0  0  0  0  0  0  0
  138.6783  150.1860  140.5319 C   0  0  0  0  0  0  0  0  0  0  0  0
  137.6385  149.3831  140.0945 C   0  0  0  0  0  0  0  0  0  0  0  0
  137.5439  148.9625  138.7457 C   0  0  0  0  0  0  0  0  0  0  0  0
  138.4874  150.4374  141.7161 C   0  0  0  0  0  0  0  0  0  0  0  0
  136.4941  149.4206  140.9718 C   0  0  0  0  0  0  0  0  0  0  0  0
  137.3995  150.3551  142.5035 C   0  0  0  0  0  0  0  0  0  0  0  0
  139.7629  151.2592  142.5447 Cl  0  0  0  0  0  0  0  0  0  0  0  0
  137.3103  150.9470  143.9439 C   0  0  0  0  0  0  0  0  0  0  0  0
  136.2313  149.8958  142.0470 C   0  0  0  0  0  0  0  0  0  0  0  0
  136.1450  151.3589  144.4416 C   0  0  0  0  0  0  0  0  0  0  0  0
  136.1223  152.0154  145.7663 C   0  0  0  0  0  0  0  0  0  0  0  0
  1  2  1  0
  2  3  2  0
  3  4  1  0
  2  5  1  0
  3  6  1  0
  5  7  2  0
  5  8  1  0
  7  9  1  0
  6 10  2  0
  7 10  1  0
  9 11  1  0
 11 12  1  0
M  END
$$$$

     RDKit          3D

 12 12  0  0  0  0  0  0  0  0999 V2000
  138.9705  151.3124  142.5681 C   0  0  0  0  0  0  0  0  0  0  0  0
  138.6057  152.0894  143.2653 C   0  0  0  0  0  0  0  0  0  0  0  0
  137.5209  151.8314  144.2019 C   0  0  0  0  0  0  0  0  0  0  0  0
  136.5811  152.7823  144.6505 C   0  0  0  0  0  0  0  0  0  0  0  0
  139.7956  151.3595  141.3741 C   0  0  0  0  0  0  0  0  0  0  0  0
  135.9804  152.8193  145.6528 C   0  0  0  0  0  0  0  0  0  0  0  0
  139.5360  150.6466  140.2953 C   0  0  0  0  0  0  0  0  0  0  0  0
  136.0633  151.5366  146.3570 C   0  0  0  0  0  0  0  0  0  0  0  0
  138.3949  149.8648  140.3621 C   0  0  0  0  0  0  0  0  0  0  0  0
  137.2544  150.6517  144.9179 C   0  0  0  0  0  0  0  0  0  0  0  0
  138.0623  149.4888  144.4356 O   0  0  0  0  0  0  0  0  0  0  0  0
  136.5401  150.3940  146.0024 C   0  0  0  0  0  0  0  0  0  0  0  0
  1  2  2  3
  2  3  1  0
  3  4  1  0
  1  5  1  0
  4  6  2  0
  5  7  2  3
  6  8  1  0
  7  9  1  0
  3 10  2  0
 10 11  1  0
  8 12  2  0
 10 12  1  0
M  END
$$$$

     RDKit          3D

 12 13  0  0  0  0  0  0  0  0999 V2000
  140.3036  150.2148  139.4783 Cl  0  0  0  0  0  0  0  0  0  0  0  0
  138.6783  150.1860  140.5319 C   0  0  0  0  0  0  0  0  0  0  0  0
  137.6385  149.3831  140.0945 C   0  0  0  0  0  0  0  0  0  0  0  0
  138.7505  150.9487  141.6715 C   0  0  0  0  0  0  0  0  0  0  0  0
  136.4550  149.4179  140.9244 C   0  0  0  0  0  0  0  0  0  0  0  0
  136.4022  150.2880  142.0367 C   0  0  0  0  0  0  0  0  0  0  0  0
  135.2043  150.3942  142.8889 C   0  0  0  0  0  0  0  0  0  0  0  0
  135.4985  151.1747  144.1387 C   0  0  0  0  0  0  0  0  0  0  0  0
  137.6375  151.0354  142.5192 C   0  0  0  0  0  0  0  0  0  0  0  0
  137.6080  151.7472  143.8401 C   0  0  0  0  0  0  0  0  0  0  0  0
  134.1979  151.3247  145.0454 Cl  0  0  0  0  0  0  0  0  0  0  0  0
  136.6214  151.8108  144.6037 C   0  0  0  0  0  0  0  0  0  0  0  0
  1  2  1  0
  2  3  2  0
  2  4  1  0
  3  5  1  0
  5  6  2  0
  6  7  1  0
  7  8  2  0
  4  9  2  0
  6  9  1  0
  9 10  1  0
  8 11  1  0
  8 12  1  0
 10 12  2  0
M  END
$$$$

     RDKit          3D

 12 13  0  0  0  0  0  0  0  0999 V2000
  139.3427  149.9935  140.5880 C   0  0  0  0  0  0  0  0  0  0  0  0
  138.9528  149.9224  139.3656 C   0  0  0  0  0  0  0  0  0  0  0  0
  138.6122  150.1102  141.6416 C   0  0  0  0  0  0  0  0  0  0  0  0
  137.1910  149.8704  141.8331 C   0  0  0  0  0  0  0  0  0  0  0  0
  136.5134  149.7658  140.5812 C   0  0  0  0  0  0  0  0  0  0  0  0
  139.1788  150.4012  143.1353 C   0  0  0  0  0  0  0  0  0  0  0  0
  138.2249  150.9731  144.0852 C   0  0  0  0  0  0  0  0  0  0  0  0
  139.6664  149.8788  138.1669 C   0  0  0  0  0  0  0  0  0  0  0  0
  136.9452  150.8349  143.8835 C   0  0  0  0  0  0  0  0  0  0  0  0
  136.2904  150.3096  142.8062 C   0  0  0  0  0  0  0  0  0  0  0  0
  137.2191  149.6534  139.2320 C   0  0  0  0  0  0  0  0  0  0  0  0
  136.3902  151.5189  145.0469 C   0  0  0  0  0  0  0  0  0  0  0  0
  1  2  2  0
  1  3  1  0
  3  4  1  0
  4  5  2  0
  3  6  1  0
  6  7  2  0
  2  8  1  0
  7  9  1  0
  4 10  1  0
  9 10  1  0
  2 11  1  0
  5 11  1  0
  9 12  1  0
M  END
$$$$

     RDKit          3D

 12 13  0  0  0  0  0  0  0  0999 V2000
  139.3427  149.9935  140.5880 C   0  0  0  0  0  0  0  0  0  0  0  0
  138.9528  149.9224  139.3656 C   0  0  0  0  0  0  0  0  0  0  0  0
  138.6122  150.1102  141.6416 C   0  0  0  0  0  0  0  0  0  0  0  0
  137.1910  149.8704  141.8331 C   0  0  0  0  0  0  0  0  0  0  0  0
  136.4707  150.2696  142.9684 C   0  0  0  0  0  0  0  0  0  0  0  0
  135.1320  150.3575  143.2741 C   0  0  0  0  0  0  0  0  0  0  0  0
  134.7294  151.0382  144.5260 C   0  0  0  0  0  0  0  0  0  0  0  0
  137.5216  150.6555  144.0748 C   0  0  0  0  0  0  0  0  0  0  0  0
  135.5802  151.5165  145.2506 C   0  0  0  0  0  0  0  0  0  0  0  0
  137.1990  151.4827  145.0820 C   0  0  0  0  0  0  0  0  0  0  0  0
  135.2770  152.3945  146.4564 C   0  0  0  0  0  0  0  0  0  0  0  0
  138.7878  150.8344  143.1691 C   0  0  0  0  0  0  0  0  0  0  0  0
  1  2  2  0
  1  3  1  0
  3  4  1  0
  4  5  2  0
  5  6  1  0
  6  7  2  0
  5  8  1  0
  7  9  1  0
  8 10  1  0
  9 10  1  0
  9 11  1  0
  3 12  2  0
  8 12  1  0
M  END
$$$$

     RDKit          3D

 12 12  0  0  0  0  0  0  0  0999 V2000
  139.5348  150.8906  142.2305 C   0  0  0  0  0  0  0  0  0  0  0  0
  139.0139  150.3976  141.0574 C   0  0  0  0  0  0  0  0  0  0  0  0
  138.6965  150.9489  143.4028 C   0  0  0  0  0  0  0  0  0  0  0  0
  137.7130  149.9460  141.0427 C   0  0  0  0  0  0  0  0  0  0  0  0
  137.5183  150.9374  143.4785 C   0  0  0  0  0  0  0  0  0  0  0  0
  136.6733  151.1274  144.6812 C   0  0  0  0  0  0  0  0  0  0  0  0
  139.8472  150.3901  139.8637 C   0  0  0  0  0  0  0  0  0  0  0  0
  135.5811  151.9101  144.4971 C   0  0  0  0  0  0  0  0  0  0  0  0
  134.7628  152.3266  145.7390 C   0  0  0  0  0  0  0  0  0  0  0  0
  134.7334  153.5989  145.9806 C   0  0  0  0  0  0  0  0  0  0  0  0
  136.7857  150.3082  141.9830 C   0  0  0  0  0  0  0  0  0  0  0  0
  139.3174  150.4004  138.6396 C   0  0  0  0  0  0  0  0  0  0  0  0
  1  2  2  0
  1  3  1  0
  2  4  1  0
  3  5  2  0
  5  6  1  0
  2  7  1  0
  6  8  1  0
  8  9  1  0
  9 10  1  0
  4 11  2  0
  5 11  1  0
  7 12  2  0
M  END
$$$$

     RDKit          3D

 12 13  0  0  0  0  0  0  0  0999 V2000
  139.3427  149.9935  140.5880 C   0  0  0  0  0  0  0  0  0  0  0  0
  138.9528  149.9224  139.3656 C   0  0  0  0  0  0  0  0  0  0  0  0
  138.6122  150.1102  141.6416 C   0  0  0  0  0  0  0  0  0  0  0  0
  137.1910  149.8704  141.8331 C   0  0  0  0  0  0  0  0  0  0  0  0
  136.5134  149.7658  140.5812 C   0  0  0  0  0  0  0  0  0  0  0  0
  139.1788  150.4012  143.1353 C   0  0  0  0  0  0  0  0  0  0  0  0
  138.2249  150.9731  144.0852 C   0  0  0  0  0  0  0  0  0  0  0  0
  136.4855  150.1086  143.0259 C   0  0  0  0  0  0  0  0  0  0  0  0
  136.9884  150.6188  144.0665 C   0  0  0  0  0  0  0  0  0  0  0  0
  135.1984  149.6017  140.4361 C   0  0  0  0  0  0  0  0  0  0  0  0
  137.4428  149.7184  139.3476 C   0  0  0  0  0  0  0  0  0  0  0  0
  136.0175  151.0035  145.4247 Cl  0  0  0  0  0  0  0  0  0  0  0  0
  1  2  2  0
  1  3  1  0
  3  4  1  0
  4  5  2  0
  3  6  1  0
  6  7  2  0
  4  8  1  0
  7  9  1  0
  8  9  2  0
  5 10  1  0
  2 11  1  0
  5 11  1  0
  9 12  1  0
M  END
$$$$

     RDKit          3D

 12 12  0  0  0  0  0  0  0  0999 V2000
  138.7090  151.1469  142.6269 C   0  0  0  0  0  0  0  0  0  0  0  0
  138.5260  151.9370  143.5114 C   0  0  0  0  0  0  0  0  0  0  0  0
  137.3819  151.6579  144.3963 C   0  0  0  0  0  0  0  0  0  0  0  0
  139.7051  151.1184  141.6077 C   0  0  0  0  0  0  0  0  0  0  0  0
  136.7072  150.4347  144.0265 C   0  0  0  0  0  0  0  0  0  0  0  0
  139.4496  150.8400  140.3164 C   0  0  0  0  0  0  0  0  0  0  0  0
  138.1688  150.1903  140.1998 C   0  0  0  0  0  0  0  0  0  0  0  0
  137.8593  149.7371  138.7840 C   0  0  0  0  0  0  0  0  0  0  0  0
  137.7643  150.0553  142.2577 C   0  0  0  0  0  0  0  0  0  0  0  0
  137.4015  149.7715  141.2341 C   0  0  0  0  0  0  0  0  0  0  0  0
  136.8618  149.7437  143.3926 C   0  0  0  0  0  0  0  0  0  0  0  0
  135.3395  151.0157  144.8787 C   0  0  0  0  0  0  0  0  0  0  0  0
  1  2  1  0
  2  3  2  3
  1  4  1  0
  3  5  1  0
  4  6  2  0
  6  7  1  0
  7  8  1  0
  1  9  2  0
  7 10  2  0
  9 10  1  0
  9 11  1  0
  5 12  1  0
M  END
$$$$

     RDKit          3D

 12 13  0  0  0  0  0  0  0  0999 V2000
  139.3427  149.9935  140.5880 C   0  0  0  0  0  0  0  0  0  0  0  0
  138.9528  149.9224  139.3656 C   0  0  0  0  0  0  0  0  0  0  0  0
  138.6122  150.1102  141.6416 C   0  0  0  0  0  0  0  0  0  0  0  0
  137.1910  149.8704  141.8331 C   0  0  0  0  0  0  0  0  0  0  0  0
  136.4707  150.2696  142.9684 C   0  0  0  0  0  0  0  0  0  0  0  0
  135.1320  150.3575  143.2741 C   0  0  0  0  0  0  0  0  0  0  0  0
  134.7294  151.0382  144.5260 C   0  0  0  0  0  0  0  0  0  0  0  0
  135.8759  151.1774  145.4350 C   0  0  0  0  0  0  0  0  0  0  0  0
  136.8864  151.8466  144.9355 C   0  0  0  0  0  0  0  0  0  0  0  0
  137.4272  151.1638  143.7468 C   0  0  0  0  0  0  0  0  0  0  0  0
  138.6412  150.6781  142.9715 C   0  0  0  0  0  0  0  0  0  0  0  0
  140.6761  150.0856  140.9728 C   0  0  0  0  0  0  0  0  0  0  0  0
  1  2  2  0
  1  3  1  0
  3  4  1  0
  4  5  2  0
  5  6  1  0
  6  7  2  0
  7  8  1  0
  8  9  1  0
  5 10  1  0
  9 10  1  0
  3 11  1  0
 10 11  1  0
  1 12  1  0
M  END
$$$$

     RDKit          3D

 12 12  0  0  0  0  0  0  0  0999 V2000
  140.3036  150.2148  139.4783 Cl  0  0  0  0  0  0  0  0  0  0  0  0
  138.6783  150.1860  140.5319 C   0  0  0  0  0  0  0  0  0  0  0  0
  137.6385  149.3831  140.0945 C   0  0  0  0  0  0  0  0  0  0  0  0
  138.7505  150.9487  141.6715 C   0  0  0  0  0  0  0  0  0  0  0  0
  136.4550  149.4179  140.9244 C   0  0  0  0  0  0  0  0  0  0  0  0
  135.2917  148.8306  140.2885 C   0  0  0  0  0  0  0  0  0  0  0  0
  137.7785  150.8083  142.6460 C   0  0  0  0  0  0  0  0  0  0  0  0
  137.9076  151.4597  143.9397 C   0  0  0  0  0  0  0  0  0  0  0  0
  136.7746  151.5623  144.7391 C   0  0  0  0  0  0  0  0  0  0  0  0
  136.8107  152.3454  145.9527 C   0  0  0  0  0  0  0  0  0  0  0  0
  135.4268  152.8607  146.2944 C   0  0  0  0  0  0  0  0  0  0  0  0
  136.8057  150.2476  141.9001 C   0  0  0  0  0  0  0  0  0  0  0  0
  1  2  1  0
  2  3  2  0
  2  4  1  0
  3  5  1  0
  5  6  1  0
  4  7  2  0
  7  8  1  0
  8  9  2  3
  9 10  1  0
 10 11  1  0
  5 12  2  0
  7 12  1  0
M  END
$$$$

     RDKit          3D

 12 13  0  0  0  0  0  0  0  0999 V2000
  140.3036  150.2148  139.4783 Cl  0  0  0  0  0  0  0  0  0  0  0  0
  138.6783  150.1860  140.5319 C   0  0  0  0  0  0  0  0  0  0  0  0
  137.6385  149.3831  140.0945 C   0  0  0  0  0  0  0  0  0  0  0  0
  139.2417  150.7158  141.5756 C   0  0  0  0  0  0  0  0  0  0  0  0
  138.3592  151.0505  142.3777 C   0  0  0  0  0  0  0  0  0  0  0  0
  136.5124  149.6312  140.9991 C   0  0  0  0  0  0  0  0  0  0  0  0
  135.2128  149.3326  140.8083 C   0  0  0  0  0  0  0  0  0  0  0  0
  136.9238  150.5296  142.3413 C   0  0  0  0  0  0  0  0  0  0  0  0
  138.1720  151.6081  143.9231 C   0  0  0  0  0  0  0  0  0  0  0  0
  137.1873  151.4526  144.6734 C   0  0  0  0  0  0  0  0  0  0  0  0
  136.4033  150.4975  144.5871 C   0  0  0  0  0  0  0  0  0  0  0  0
  135.9730  150.1589  143.2599 N   0  0  0  0  0  0  0  0  0  0  0  0
  1  2  1  0
  2  3  1  0
  2  4  2  0
  4  5  1  0
  3  6  2  0
  6  7  1  0
  5  8  2  0
  6  8  1  0
  5  9  1  0
  9 10  1  0
 10 11  2  0
  8 12  1  0
 11 12  1  0
M  END
$$$$

     RDKit          3D

 12 13  0  0  0  0  0  0  0  0999 V2000
  139.3427  149.9935  140.5880 C   0  0  0  0  0  0  0  0  0  0  0  0
  138.9528  149.9224  139.3656 C   0  0  0  0  0  0  0  0  0  0  0  0
  138.6122  150.1102  141.6416 C   0  0  0  0  0  0  0  0  0  0  0  0
  137.1910  149.8704  141.8331 C   0  0  0  0  0  0  0  0  0  0  0  0
  136.5134  149.7658  140.5812 C   0  0  0  0  0  0  0  0  0  0  0  0
  139.1788  150.4012  143.1353 C   0  0  0  0  0  0  0  0  0  0  0  0
  138.2249  150.9731  144.0852 C   0  0  0  0  0  0  0  0  0  0  0  0
  136.4855  150.1086  143.0259 C   0  0  0  0  0  0  0  0  0  0  0  0
  136.9884  150.6188  144.0665 C   0  0  0  0  0  0  0  0  0  0  0  0
  137.3213  149.7147  139.3327 C   0  0  0  0  0  0  0  0  0  0  0  0
  136.1910  151.0516  145.2324 C   0  0  0  0  0  0  0  0  0  0  0  0
  136.4660  151.3288  146.4120 C   0  0  0  0  0  0  0  0  0  0  0  0
  1  2  2  0
  1  3  1  0
  3  4  1  0
  4  5  2  0
  3  6  1  0
  6  7  2  0
  4  8  1  0
  7  9  1  0
  8  9  2  0
  2 10  1  0
  5 10  1  0
  9 11  1  0
 11 12  2  0
M  END
$$$$

     RDKit          3D

 12 13  0  0  0  0  0  0  0  0999 V2000
  138.7090  151.1469  142.6269 C   0  0  0  0  0  0  0  0  0  0  0  0
  138.5260  151.9370  143.5114 C   0  0  0  0  0  0  0  0  0  0  0  0
  137.4749  151.6734  144.4638 C   0  0  0  0  0  0  0  0  0  0  0  0
  138.0103  149.8673  142.4738 C   0  0  0  0  0  0  0  0  0  0  0  0
  136.7212  150.4817  144.2964 C   0  0  0  0  0  0  0  0  0  0  0  0
  136.9974  149.5746  143.3594 C   0  0  0  0  0  0  0  0  0  0  0  0
  139.9266  151.4812  141.3818 S   0  0  0  0  0  0  0  0  0  0  0  0
  139.3329  150.2771  140.2692 C   0  0  0  0  0  0  0  0  0  0  0  0
  138.4011  149.2335  141.2158 C   0  0  0  0  0  0  0  0  0  0  0  0
  137.1462  152.6320  145.5013 O   0  0  0  0  0  0  0  0  0  0  0  0
  136.6182  153.8200  145.0744 C   0  0  0  0  0  0  0  0  0  0  0  0
  140.0738  149.8202  139.3141 C   0  0  0  0  0  0  0  0  0  0  0  0
  1  2  2  0
  2  3  1  0
  1  4  1  0
  3  5  2  0
  4  6  2  0
  5  6  1  0
  1  7  1  0
  7  8  1  0
  4  9  1  0
  8  9  1  0
  3 10  1  0
 10 11  1  0
  8 12  1  0
M  END
$$$$

     RDKit          3D

 12 13  0  0  0  0  0  0  0  0999 V2000
  140.3036  150.2148  139.4783 Cl  0  0  0  0  0  0  0  0  0  0  0  0
  138.6783  150.1860  140.5319 C   0  0  0  0  0  0  0  0  0  0  0  0
  137.6385  149.3831  140.0945 C   0  0  0  0  0  0  0  0  0  0  0  0
  138.7505  150.9487  141.6715 C   0  0  0  0  0  0  0  0  0  0  0  0
  136.5606  149.6034  140.7973 C   0  0  0  0  0  0  0  0  0  0  0  0
  136.3933  150.3970  141.9259 C   0  0  0  0  0  0  0  0  0  0  0  0
  135.1767  150.5746  142.7425 C   0  0  0  0  0  0  0  0  0  0  0  0
  137.6240  151.0454  142.4631 C   0  0  0  0  0  0  0  0  0  0  0  0
  135.5570  151.3774  144.0086 C   0  0  0  0  0  0  0  0  0  0  0  0
  136.4033  150.8169  144.9846 C   0  0  0  0  0  0  0  0  0  0  0  0
  137.4646  151.6144  145.1063 C   0  0  0  0  0  0  0  0  0  0  0  0
  137.7785  151.7158  143.8090 C   0  0  0  0  0  0  0  0  0  0  0  0
  1  2  1  0
  2  3  2  0
  2  4  1  0
  3  5  1  0
  5  6  2  0
  6  7  1  0
  4  8  2  0
  6  8  1  0
  7  9  1  0
  9 10  1  0
 10 11  1  0
  8 12  1  0
 11 12  1  0
M  END
$$$$

     RDKit          3D

 12 13  0  0  0  0  0  0  0  0999 V2000
  138.7090  151.1469  142.6269 C   0  0  0  0  0  0  0  0  0  0  0  0
  138.5260  151.9370  143.5114 C   0  0  0  0  0  0  0  0  0  0  0  0
  137.3819  151.6579  144.3963 C   0  0  0  0  0  0  0  0  0  0  0  0
  139.7051  151.1184  141.6077 C   0  0  0  0  0  0  0  0  0  0  0  0
  139.4637  150.8262  140.3138 C   0  0  0  0  0  0  0  0  0  0  0  0
  138.1443  150.1615  140.2328 C   0  0  0  0  0  0  0  0  0  0  0  0
  137.8478  149.6487  138.8336 C   0  0  0  0  0  0  0  0  0  0  0  0
  137.2643  149.9895  141.3145 C   0  0  0  0  0  0  0  0  0  0  0  0
  135.9218  149.4173  140.9862 C   0  0  0  0  0  0  0  0  0  0  0  0
  136.8375  152.4753  145.3501 C   0  0  0  0  0  0  0  0  0  0  0  0
  137.5395  150.3365  142.3684 C   0  0  0  0  0  0  0  0  0  0  0  0
  136.8330  150.4339  143.8933 C   0  0  0  0  0  0  0  0  0  0  0  0
  1  2  1  0
  2  3  2  0
  1  4  1  0
  4  5  2  0
  5  6  1  0
  6  7  1  0
  6  8  2  0
  8  9  1  0
  3 10  1  0
  1 11  2  0
  8 11  1  0
  3 12  1  0
 11 12  1  0
M  END
$$$$

     RDKit          3D

 12 13  0  0  0  0  0  0  0  0999 V2000
  138.7090  151.1469  142.6269 C   0  0  0  0  0  0  0  0  0  0  0  0
  138.5260  151.9370  143.5114 C   0  0  0  0  0  0  0  0  0  0  0  0
  137.4749  151.6734  144.4638 C   0  0  0  0  0  0  0  0  0  0  0  0
  138.0103  149.8673  142.4738 C   0  0  0  0  0  0  0  0  0  0  0  0
  136.7212  150.4817  144.2964 C   0  0  0  0  0  0  0  0  0  0  0  0
  137.0162  149.5952  143.3274 C   0  0  0  0  0  0  0  0  0  0  0  0
  137.1315  152.6397  145.4953 C   0  0  0  0  0  0  0  0  0  0  0  0
  139.7947  151.3208  141.5586 C   0  0  0  0  0  0  0  0  0  0  0  0
  139.6348  150.8453  140.3349 C   0  0  0  0  0  0  0  0  0  0  0  0
  138.6093  149.9999  139.9899 C   0  0  0  0  0  0  0  0  0  0  0  0
  135.7843  152.8120  145.9082 C   0  0  0  0  0  0  0  0  0  0  0  0
  138.0914  149.1888  141.2031 N   0  0  0  0  0  0  0  0  0  0  0  0
  1  2  2  0
  2  3  1  0
  1  4  1  0
  3  5  2  0
  4  6  2  0
  5  6  1  0
  3  7  1  0
  1  8  1  0
  8  9  2  0
  9 10  1  0
  7 11  1  0
  4 12  1  0
 10 12  2  0
M  END
$$$$

     RDKit          3D

 12 13  0  0  0  0  0  0  0  0999 V2000
  140.3036  150.2148  139.4783 Cl  0  0  0  0  0  0  0  0  0  0  0  0
  138.6783  150.1860  140.5319 C   0  0  0  0  0  0  0  0  0  0  0  0
  137.6385  149.3831  140.0945 C   0  0  0  0  0  0  0  0  0  0  0  0
  138.7505  150.9487  141.6715 C   0  0  0  0  0  0  0  0  0  0  0  0
  136.5606  149.6034  140.7973 C   0  0  0  0  0  0  0  0  0  0  0  0
  135.2960  149.0163  140.1852 C   0  0  0  0  0  0  0  0  0  0  0  0
  136.5422  150.4642  141.8563 C   0  0  0  0  0  0  0  0  0  0  0  0
  135.3353  150.6737  142.7430 C   0  0  0  0  0  0  0  0  0  0  0  0
  135.7908  151.4836  143.9525 C   0  0  0  0  0  0  0  0  0  0  0  0
  137.8598  151.0634  142.3472 C   0  0  0  0  0  0  0  0  0  0  0  0
  137.1326  151.5837  144.2484 C   0  0  0  0  0  0  0  0  0  0  0  0
  137.8780  151.7265  143.4741 N   0  0  0  0  0  0  0  0  0  0  0  0
  1  2  1  0
  2  3  2  0
  2  4  1  0
  3  5  1  0
  5  6  1  0
  5  7  2  0
  7  8  1  0
  8  9  1  0
  4 10  2  0
  7 10  1  0
  9 11  1  0
 10 12  1  0
 11 12  2  0
M  END
$$$$

     RDKit          3D

 12 12  0  0  0  0  0  0  0  0999 V2000
  140.3036  150.2148  139.4783 Cl  0  0  0  0  0  0  0  0  0  0  0  0
  138.6783  150.1860  140.5319 C   0  0  0  0  0  0  0  0  0  0  0  0
  137.6385  149.3831  140.0945 C   0  0  0  0  0  0  0  0  0  0  0  0
  138.7733  150.9283  141.6507 C   0  0  0  0  0  0  0  0  0  0  0  0
  137.6844  150.8835  142.5421 C   0  0  0  0  0  0  0  0  0  0  0  0
  137.8374  151.5218  143.8915 C   0  0  0  0  0  0  0  0  0  0  0  0
  136.6920  151.6926  144.6953 C   0  0  0  0  0  0  0  0  0  0  0  0
  137.6542  148.8478  138.8366 C   0  0  0  0  0  0  0  0  0  0  0  0
  135.5431  151.0559  144.2075 C   0  0  0  0  0  0  0  0  0  0  0  0
  136.5025  149.6294  140.8401 C   0  0  0  0  0  0  0  0  0  0  0  0
  136.5361  150.2397  141.9733 C   0  0  0  0  0  0  0  0  0  0  0  0
  136.8759  152.3655  145.9358 C   0  0  0  0  0  0  0  0  0  0  0  0
  1  2  1  0
  2  3  1  0
  2  4  2  0
  4  5  1  0
  5  6  1  0
  6  7  2  3
  3  8  1  0
  7  9  1  0
  3 10  2  0
  5 11  2  0
 10 11  1  0
  7 12  1  0
M  END
$$$$

     RDKit          3D

 12 13  0  0  0  0  0  0  0  0999 V2000
  139.5348  150.8906  142.2305 C   0  0  0  0  0  0  0  0  0  0  0  0
  139.0139  150.3976  141.0574 C   0  0  0  0  0  0  0  0  0  0  0  0
  138.6965  150.9489  143.4028 C   0  0  0  0  0  0  0  0  0  0  0  0
  137.7130  149.9460  141.0427 C   0  0  0  0  0  0  0  0  0  0  0  0
  137.5183  150.9374  143.4785 C   0  0  0  0  0  0  0  0  0  0  0  0
  136.6733  151.1274  144.6812 C   0  0  0  0  0  0  0  0  0  0  0  0
  139.8472  150.3901  139.8637 C   0  0  0  0  0  0  0  0  0  0  0  0
  136.7200  150.2063  141.8846 C   0  0  0  0  0  0  0  0  0  0  0  0
  136.4930  150.6203  143.0434 C   0  0  0  0  0  0  0  0  0  0  0  0
  135.2997  150.8902  143.6481 C   0  0  0  0  0  0  0  0  0  0  0  0
  139.3770  150.4936  138.6502 C   0  0  0  0  0  0  0  0  0  0  0  0
  135.4193  151.2775  144.8638 C   0  0  0  0  0  0  0  0  0  0  0  0
  1  2  2  0
  1  3  1  0
  2  4  1  0
  3  5  2  0
  5  6  1  0
  2  7  1  0
  4  8  2  0
  5  9  1  0
  8  9  1  0
  9 10  1  0
  7 11  2  0
  6 12  2  0
 10 12  2  0
M  END
$$$$

     RDKit          3D

 12 13  0  0  0  0  0  0  0  0999 V2000
  139.2621  151.0929  142.4047 C   0  0  0  0  0  0  0  0  0  0  0  0
  138.8616  152.1308  142.9039 C   0  0  0  0  0  0  0  0  0  0  0  0
  137.9118  151.7982  143.7822 C   0  0  0  0  0  0  0  0  0  0  0  0
  138.8285  150.4008  141.6024 C   0  0  0  0  0  0  0  0  0  0  0  0
  137.6662  149.9534  141.7610 C   0  0  0  0  0  0  0  0  0  0  0  0
  137.5078  152.6004  144.9580 C   0  0  0  0  0  0  0  0  0  0  0  0
  136.7566  150.5976  142.5696 C   0  0  0  0  0  0  0  0  0  0  0  0
  135.2516  150.0192  142.1955 C   0  0  0  0  0  0  0  0  0  0  0  0
  136.6977  151.1243  143.4663 C   0  0  0  0  0  0  0  0  0  0  0  0
  135.6337  151.2881  144.4535 C   0  0  0  0  0  0  0  0  0  0  0  0
  136.1903  152.1499  145.5678 C   0  0  0  0  0  0  0  0  0  0  0  0
  135.7271  152.4910  146.6283 O   0  0  0  0  0  0  0  0  0  0  0  0
  1  2  1  0
  2  3  2  0
  1  4  2  0
  4  5  1  0
  3  6  1  0
  5  7  2  0
  7  8  1  0
  3  9  1  0
  7  9  1  0
  9 10  2  0
  6 11  1  0
 10 11  1  0
 11 12  2  0
M  END
$$$$

     RDKit          3D

 12 13  0  0  0  0  0  0  0  0999 V2000
  139.5348  150.8906  142.2305 C   0  0  0  0  0  0  0  0  0  0  0  0
  139.0139  150.3976  141.0574 C   0  0  0  0  0  0  0  0  0  0  0  0
  138.6965  150.9489  143.4028 C   0  0  0  0  0  0  0  0  0  0  0  0
  137.7130  149.9460  141.0427 C   0  0  0  0  0  0  0  0  0  0  0  0
  137.5183  150.9374  143.4785 C   0  0  0  0  0  0  0  0  0  0  0  0
  136.6733  151.1274  144.6812 C   0  0  0  0  0  0  0  0  0  0  0  0
  139.8472  150.3901  139.8637 C   0  0  0  0  0  0  0  0  0  0  0  0
  136.7200  150.2063  141.8846 C   0  0  0  0  0  0  0  0  0  0  0  0
  136.4930  150.6203  143.0434 C   0  0  0  0  0  0  0  0  0  0  0  0
  135.2997  150.8902  143.6481 C   0  0  0  0  0  0  0  0  0  0  0  0
  139.3770  150.4936  138.6502 C   0  0  0  0  0  0  0  0  0  0  0  0
  135.4193  151.2775  144.8638 C   0  0  0  0  0  0  0  0  0  0  0  0
  1  2  2  0
  1  3  1  0
  2  4  1  0
  3  5  2  0
  5  6  1  0
  2  7  1  0
  4  8  2  0
  5  9  1  0
  8  9  1  0
  9 10  1  0
  7 11  2  0
  6 12  1  0
 10 12  2  0
M  END
$$$$

     RDKit          3D

 12 13  0  0  0  0  0  0  0  0999 V2000
  139.5348  150.8906  142.2305 C   0  0  0  0  0  0  0  0  0  0  0  0
  139.0139  150.3976  141.0574 C   0  0  0  0  0  0  0  0  0  0  0  0
  138.6965  150.9489  143.4028 C   0  0  0  0  0  0  0  0  0  0  0  0
  137.7130  149.9460  141.0427 C   0  0  0  0  0  0  0  0  0  0  0  0
  137.5183  150.9374  143.4785 C   0  0  0  0  0  0  0  0  0  0  0  0
  136.6733  151.1274  144.6812 C   0  0  0  0  0  0  0  0  0  0  0  0
  139.8472  150.3901  139.8637 C   0  0  0  0  0  0  0  0  0  0  0  0
  136.7200  150.2063  141.8846 C   0  0  0  0  0  0  0  0  0  0  0  0
  136.4930  150.6203  143.0434 C   0  0  0  0  0  0  0  0  0  0  0  0
  139.3609  150.4992  138.6511 C   0  0  0  0  0  0  0  0  0  0  0  0
  141.0593  150.6025  140.2414 O   0  0  0  0  0  0  0  0  0  0  0  0
  135.4408  151.0137  143.8327 C   0  0  0  0  0  0  0  0  0  0  0  0
  1  2  2  0
  1  3  1  0
  2  4  1  0
  3  5  2  0
  5  6  1  0
  2  7  1  0
  4  8  2  0
  5  9  1  0
  8  9  1  0
  7 10  1  0
  7 11  2  0
  6 12  1  0
  9 12  1  0
M  END
$$$$

     RDKit          3D

 13 14  0  0  0  0  0  0  0  0999 V2000
  139.5348  150.8906  142.2305 C   0  0  0  0  0  0  0  0  0  0  0  0
  139.0139  150.3976  141.0574 C   0  0  0  0  0  0  0  0  0  0  0  0
  138.6965  150.9489  143.4028 C   0  0  0  0  0  0  0  0  0  0  0  0
  137.7130  149.9460  141.0427 C   0  0  0  0  0  0  0  0  0  0  0  0
  137.5183  150.9374  143.4785 C   0  0  0  0  0  0  0  0  0  0  0  0
  136.6733  151.1274  144.6812 C   0  0  0  0  0  0  0  0  0  0  0  0
  139.8472  150.3901  139.8637 C   0  0  0  0  0  0  0  0  0  0  0  0
  136.7200  150.2063  141.8846 C   0  0  0  0  0  0  0  0  0  0  0  0
  139.3494  150.4799  138.6289 C   0  0  0  0  0  0  0  0  0  0  0  0
  136.4777  150.6313  143.0502 C   0  0  0  0  0  0  0  0  0  0  0  0
  135.2419  150.9122  143.6360 C   0  0  0  0  0  0  0  0  0  0  0  0
  135.6170  151.3842  144.7538 C   0  0  0  0  0  0  0  0  0  0  0  0
  141.2396  150.3052  140.0959 C   0  0  0  0  0  0  0  0  0  0  0  0
  1  2  2  0
  1  3  1  0
  2  4  1  0
  3  5  2  0
  5  6  1  0
  2  7  1  0
  4  8  2  0
  7  9  1  0
  5 10  1  0
  8 10  1  0
 10 11  1  0
  6 12  1  0
 11 12  2  0
  7 13  2  0
M  END
$$$$

     RDKit          3D

 13 14  0  0  0  0  0  0  0  0999 V2000
  140.3036  150.2148  139.4783 Cl  0  0  0  0  0  0  0  0  0  0  0  0
  138.6783  150.1860  140.5319 C   0  0  0  0  0  0  0  0  0  0  0  0
  137.6385  149.3831  140.0945 C   0  0  0  0  0  0  0  0  0  0  0  0
  138.8668  150.7183  141.4516 C   0  0  0  0  0  0  0  0  0  0  0  0
  138.3194  150.9395  142.2987 C   0  0  0  0  0  0  0  0  0  0  0  0
  136.9007  150.1342  142.2766 C   0  0  0  0  0  0  0  0  0  0  0  0
  136.0346  150.4104  143.3393 C   0  0  0  0  0  0  0  0  0  0  0  0
  137.4083  148.7821  138.9116 C   0  0  0  0  0  0  0  0  0  0  0  0
  136.4724  151.2971  144.2937 C   0  0  0  0  0  0  0  0  0  0  0  0
  136.0775  151.4989  145.5085 C   0  0  0  0  0  0  0  0  0  0  0  0
  136.5563  149.5242  141.0841 C   0  0  0  0  0  0  0  0  0  0  0  0
  137.5902  152.2164  143.8985 C   0  0  0  0  0  0  0  0  0  0  0  0
  138.5601  151.8060  143.2029 C   0  0  0  0  0  0  0  0  0  0  0  0
  1  2  1  0
  2  3  2  0
  2  4  1  0
  4  5  2  0
  5  6  1  0
  6  7  1  0
  3  8  1  0
  7  9  1  0
  9 10  1  0
  3 11  1  0
  6 11  2  0
  9 12  2  0
  5 13  1  0
 12 13  1  0
M  END
$$$$

     RDKit          3D

 13 14  0  0  0  0  0  0  0  0999 V2000
  139.5348  150.8906  142.2305 C   0  0  0  0  0  0  0  0  0  0  0  0
  139.0139  150.3976  141.0574 C   0  0  0  0  0  0  0  0  0  0  0  0
  138.6965  150.9489  143.4028 C   0  0  0  0  0  0  0  0  0  0  0  0
  137.7130  149.9460  141.0427 C   0  0  0  0  0  0  0  0  0  0  0  0
  137.5183  150.9374  143.4785 C   0  0  0  0  0  0  0  0  0  0  0  0
  136.6733  151.1274  144.6812 C   0  0  0  0  0  0  0  0  0  0  0  0
  139.8472  150.3901  139.8637 C   0  0  0  0  0  0  0  0  0  0  0  0
  136.7200  150.2063  141.8846 C   0  0  0  0  0  0  0  0  0  0  0  0
  139.3494  150.4799  138.6289 C   0  0  0  0  0  0  0  0  0  0  0  0
  136.4777  150.6313  143.0502 C   0  0  0  0  0  0  0  0  0  0  0  0
  141.0608  150.6426  140.1969 O   0  0  0  0  0  0  0  0  0  0  0  0
  135.8742  151.8424  144.7479 C   0  0  0  0  0  0  0  0  0  0  0  0
  135.3645  151.1576  143.6473 N   0  0  0  0  0  0  0  0  0  0  0  0
  1  2  2  0
  1  3  1  0
  2  4  1  0
  3  5  2  0
  5  6  1  0
  2  7  1  0
  4  8  2  0
  7  9  1  0
  5 10  1  0
  8 10  1  0
  7 11  2  0
  6 12  2  0
 10 13  1  0
 12 13  1  0
M  END
$$$$

     RDKit          3D

 13 14  0  0  0  0  0  0  0  0999 V2000
  139.5348  150.8906  142.2305 C   0  0  0  0  0  0  0  0  0  0  0  0
  139.0139  150.3976  141.0574 C   0  0  0  0  0  0  0  0  0  0  0  0
  138.6965  150.9489  143.4028 C   0  0  0  0  0  0  0  0  0  0  0  0
  137.7130  149.9460  141.0427 C   0  0  0  0  0  0  0  0  0  0  0  0
  137.5183  150.9374  143.4785 C   0  0  0  0  0  0  0  0  0  0  0  0
  136.6733  151.1274  144.6812 C   0  0  0  0  0  0  0  0  0  0  0  0
  139.8472  150.3901  139.8637 C   0  0  0  0  0  0  0  0  0  0  0  0
  136.7200  150.2063  141.8846 C   0  0  0  0  0  0  0  0  0  0  0  0
  136.4930  150.6203  143.0434 C   0  0  0  0  0  0  0  0  0  0  0  0
  135.8664  151.8203  144.7141 C   0  0  0  0  0  0  0  0  0  0  0  0
  135.2290  151.3391  143.4663 N   0  0  0  0  0  0  0  0  0  0  0  0
  141.2410  150.3220  140.0287 C   0  0  0  0  0  0  0  0  0  0  0  0
  139.4181  150.5105  138.8357 O   0  0  0  0  0  0  0  0  0  0  0  0
  1  2  2  0
  1  3  1  0
  2  4  1  0
  3  5  2  0
  5  6  1  0
  2  7  1  0
  4  8  2  0
  5  9  1  0
  8  9  1  0
  6 10  2  0
  9 11  2  0
 10 11  1  0
  7 12  1  0
  7 13  2  0
M  END
$$$$

     RDKit          3D

 13 14  0  0  0  0  0  0  0  0999 V2000
  139.0004  149.7631  140.3649 C   0  0  0  0  0  0  0  0  0  0  0  0
  138.7142  149.5451  139.1249 C   0  0  0  0  0  0  0  0  0  0  0  0
  138.1856  150.1072  141.2839 C   0  0  0  0  0  0  0  0  0  0  0  0
  137.3213  149.5926  138.6821 C   0  0  0  0  0  0  0  0  0  0  0  0
  136.3776  149.8122  139.7323 C   0  0  0  0  0  0  0  0  0  0  0  0
  138.6498  150.4524  142.6761 C   0  0  0  0  0  0  0  0  0  0  0  0
  137.8095  150.9703  143.6446 C   0  0  0  0  0  0  0  0  0  0  0  0
  136.5355  151.0899  143.2204 C   0  0  0  0  0  0  0  0  0  0  0  0
  135.6032  151.5335  144.2586 C   0  0  0  0  0  0  0  0  0  0  0  0
  136.7210  150.1954  141.0308 C   0  0  0  0  0  0  0  0  0  0  0  0
  135.1480  151.2088  145.2320 C   0  0  0  0  0  0  0  0  0  0  0  0
  136.0911  150.3562  146.0614 C   0  0  0  0  0  0  0  0  0  0  0  0
  135.8859  150.5668  142.0780 C   0  0  0  0  0  0  0  0  0  0  0  0
  1  2  2  0
  1  3  1  0
  2  4  1  0
  4  5  2  0
  3  6  1  0
  6  7  2  0
  7  8  1  0
  8  9  1  0
  3 10  2  0
  5 10  1  0
  9 11  2  3
 11 12  1  0
  8 13  2  0
 10 13  1  0
M  END
$$$$

     RDKit          3D

 13 14  0  0  0  0  0  0  0  0999 V2000
  138.9705  151.3124  142.5681 C   0  0  0  0  0  0  0  0  0  0  0  0
  138.6057  152.0894  143.2653 C   0  0  0  0  0  0  0  0  0  0  0  0
  137.6600  151.8349  144.0467 C   0  0  0  0  0  0  0  0  0  0  0  0
  139.9939  151.3511  141.4314 C   0  0  0  0  0  0  0  0  0  0  0  0
  137.4795  150.6675  144.8972 C   0  0  0  0  0  0  0  0  0  0  0  0
  139.6568  150.7243  140.2644 C   0  0  0  0  0  0  0  0  0  0  0  0
  138.5004  150.0428  140.1974 C   0  0  0  0  0  0  0  0  0  0  0  0
  137.5686  149.8234  141.3807 C   0  0  0  0  0  0  0  0  0  0  0  0
  140.5888  150.6785  139.1831 C   0  0  0  0  0  0  0  0  0  0  0  0
  138.0055  150.3807  142.5466 C   0  0  0  0  0  0  0  0  0  0  0  0
  138.1349  149.5960  138.9657 C   0  0  0  0  0  0  0  0  0  0  0  0
  136.9256  149.0311  138.6707 C   0  0  0  0  0  0  0  0  0  0  0  0
  137.3519  149.8279  143.7212 N   0  0  0  0  0  0  0  0  0  0  0  0
  1  2  2  0
  2  3  1  0
  1  4  1  0
  3  5  2  0
  4  6  2  0
  6  7  1  0
  7  8  1  0
  6  9  1  0
  1 10  1  0
  8 10  2  0
  7 11  2  3
 11 12  1  0
  5 13  1  0
 10 13  1  0
M  END
$$$$

     RDKit          3D

 13 14  0  0  0  0  0  0  0  0999 V2000
  140.3036  150.2148  139.4783 Cl  0  0  0  0  0  0  0  0  0  0  0  0
  138.6783  150.1860  140.5319 C   0  0  0  0  0  0  0  0  0  0  0  0
  137.6385  149.3831  140.0945 C   0  0  0  0  0  0  0  0  0  0  0  0
  136.4392  149.4569  140.8209 C   0  0  0  0  0  0  0  0  0  0  0  0
  138.9819  150.6978  141.6811 C   0  0  0  0  0  0  0  0  0  0  0  0
  136.5079  150.3497  141.8163 C   0  0  0  0  0  0  0  0  0  0  0  0
  135.2761  150.6086  142.7157 C   0  0  0  0  0  0  0  0  0  0  0  0
  135.7352  151.2618  143.9974 C   0  0  0  0  0  0  0  0  0  0  0  0
  136.5566  152.2474  144.0879 C   0  0  0  0  0  0  0  0  0  0  0  0
  136.8077  153.0158  145.3189 C   0  0  0  0  0  0  0  0  0  0  0  0
  135.9607  152.6751  146.4650 C   0  0  0  0  0  0  0  0  0  0  0  0
  137.7832  151.0049  142.3574 C   0  0  0  0  0  0  0  0  0  0  0  0
  137.7560  152.1591  143.2641 C   0  0  0  0  0  0  0  0  0  0  0  0
  1  2  1  0
  2  3  2  0
  3  4  1  0
  2  5  1  0
  4  6  2  0
  6  7  1  0
  7  8  1  0
  8  9  2  0
  9 10  1  0
 10 11  1  0
  5 12  2  0
  6 12  1  0
  9 13  1  0
 12 13  1  0
M  END
$$$$

     RDKit          3D

 13 14  0  0  0  0  0  0  0  0999 V2000
  140.3036  150.2148  139.4783 Cl  0  0  0  0  0  0  0  0  0  0  0  0
  138.6783  150.1860  140.5319 C   0  0  0  0  0  0  0  0  0  0  0  0
  137.6385  149.3831  140.0945 C   0  0  0  0  0  0  0  0  0  0  0  0
  139.0332  150.8824  141.6179 C   0  0  0  0  0  0  0  0  0  0  0  0
  136.4856  149.4719  141.0089 C   0  0  0  0  0  0  0  0  0  0  0  0
  136.6941  150.4320  141.9099 C   0  0  0  0  0  0  0  0  0  0  0  0
  135.4560  150.7034  142.8865 C   0  0  0  0  0  0  0  0  0  0  0  0
  135.9662  151.2424  144.1646 C   0  0  0  0  0  0  0  0  0  0  0  0
  137.9156  151.0234  142.4329 C   0  0  0  0  0  0  0  0  0  0  0  0
  138.0711  151.7189  143.7547 C   0  0  0  0  0  0  0  0  0  0  0  0
  134.7388  151.4507  145.1705 C   0  0  0  0  0  0  0  0  0  0  0  0
  137.0394  151.6852  144.5235 C   0  0  0  0  0  0  0  0  0  0  0  0
  137.0088  151.9543  145.8511 O   0  0  0  0  0  0  0  0  0  0  0  0
  1  2  1  0
  2  3  2  0
  2  4  1  0
  3  5  1  0
  5  6  2  0
  6  7  1  0
  7  8  2  0
  4  9  2  0
  6  9  1  0
  9 10  1  0
  8 11  1  0
  8 12  1  0
 10 12  1  0
 12 13  2  0
M  END
$$$$

     RDKit          3D

 13 14  0  0  0  0  0  0  0  0999 V2000
  139.5348  150.8906  142.2305 C   0  0  0  0  0  0  0  0  0  0  0  0
  139.0139  150.3976  141.0574 C   0  0  0  0  0  0  0  0  0  0  0  0
  138.6965  150.9489  143.4028 C   0  0  0  0  0  0  0  0  0  0  0  0
  137.7130  149.9460  141.0427 C   0  0  0  0  0  0  0  0  0  0  0  0
  137.5183  150.9374  143.4785 C   0  0  0  0  0  0  0  0  0  0  0  0
  136.6733  151.1274  144.6812 C   0  0  0  0  0  0  0  0  0  0  0  0
  139.8472  150.3901  139.8637 C   0  0  0  0  0  0  0  0  0  0  0  0
  136.7200  150.2063  141.8846 C   0  0  0  0  0  0  0  0  0  0  0  0
  141.2316  150.2438  139.9961 C   0  0  0  0  0  0  0  0  0  0  0  0
  139.3299  150.5323  138.8385 O   0  0  0  0  0  0  0  0  0  0  0  0
  136.5906  150.6919  143.0970 C   0  0  0  0  0  0  0  0  0  0  0  0
  135.3486  151.5434  144.9697 C   0  0  0  0  0  0  0  0  0  0  0  0
  135.1921  152.1203  146.2943 C   0  0  0  0  0  0  0  0  0  0  0  0
  1  2  2  0
  1  3  1  0
  2  4  1  0
  3  5  2  0
  5  6  1  0
  2  7  1  0
  4  8  2  0
  7  9  1  0
  7 10  2  0
  5 11  1  0
  6 11  1  0
  8 11  1  0
  6 12  1  0
 12 13  1  0
M  END
$$$$

     RDKit          3D

 13 14  0  0  0  0  0  0  0  0999 V2000
  140.3036  150.2148  139.4783 Cl  0  0  0  0  0  0  0  0  0  0  0  0
  138.6783  150.1860  140.5319 C   0  0  0  0  0  0  0  0  0  0  0  0
  137.6385  149.3831  140.0945 C   0  0  0  0  0  0  0  0  0  0  0  0
  139.0332  150.8824  141.6179 C   0  0  0  0  0  0  0  0  0  0  0  0
  136.6575  149.6448  140.8215 C   0  0  0  0  0  0  0  0  0  0  0  0
  135.2931  149.1275  140.2769 C   0  0  0  0  0  0  0  0  0  0  0  0
  136.7024  150.5097  141.8835 C   0  0  0  0  0  0  0  0  0  0  0  0
  135.5279  150.7540  142.7997 C   0  0  0  0  0  0  0  0  0  0  0  0
  136.0533  151.3559  144.1204 C   0  0  0  0  0  0  0  0  0  0  0  0
  138.0052  151.0510  142.3830 C   0  0  0  0  0  0  0  0  0  0  0  0
  135.0869  151.6683  145.1489 C   0  0  0  0  0  0  0  0  0  0  0  0
  137.2159  151.5637  144.5407 C   0  0  0  0  0  0  0  0  0  0  0  0
  138.1221  151.7667  143.6247 C   0  0  0  0  0  0  0  0  0  0  0  0
  1  2  1  0
  2  3  2  0
  2  4  1  0
  3  5  1  0
  5  6  1  0
  5  7  2  0
  7  8  1  0
  8  9  2  0
  4 10  2  0
  7 10  1  0
  9 11  1  0
  9 12  1  0
 10 13  1  0
 12 13  1  0
M  END
$$$$

     RDKit          3D

 13 14  0  0  0  0  0  0  0  0999 V2000
  138.7090  151.1469  142.6269 C   0  0  0  0  0  0  0  0  0  0  0  0
  138.5260  151.9370  143.5114 C   0  0  0  0  0  0  0  0  0  0  0  0
  137.3819  151.6579  144.3963 C   0  0  0  0  0  0  0  0  0  0  0  0
  139.7051  151.1184  141.6077 C   0  0  0  0  0  0  0  0  0  0  0  0
  139.4637  150.8262  140.3138 C   0  0  0  0  0  0  0  0  0  0  0  0
  138.1443  150.1615  140.2328 C   0  0  0  0  0  0  0  0  0  0  0  0
  137.8478  149.6487  138.8336 C   0  0  0  0  0  0  0  0  0  0  0  0
  137.2643  149.9895  141.3145 C   0  0  0  0  0  0  0  0  0  0  0  0
  135.9218  149.4173  140.9862 C   0  0  0  0  0  0  0  0  0  0  0  0
  137.6110  150.4170  142.5074 C   0  0  0  0  0  0  0  0  0  0  0  0
  137.0843  152.1599  145.6485 C   0  0  0  0  0  0  0  0  0  0  0  0
  135.8265  152.8752  145.7731 C   0  0  0  0  0  0  0  0  0  0  0  0
  136.8475  150.2871  143.7022 C   0  0  0  0  0  0  0  0  0  0  0  0
  1  2  1  0
  2  3  2  0
  1  4  1  0
  4  5  2  0
  5  6  1  0
  6  7  1  0
  6  8  2  0
  8  9  1  0
  1 10  2  0
  8 10  1  0
  3 11  1  0
 11 12  1  0
  3 13  1  0
 10 13  1  0
M  END
$$$$

     RDKit          3D

 13 14  0  0  0  0  0  0  0  0999 V2000
  139.3427  149.9935  140.5880 C   0  0  0  0  0  0  0  0  0  0  0  0
  138.9528  149.9224  139.3656 C   0  0  0  0  0  0  0  0  0  0  0  0
  138.6122  150.1102  141.6416 C   0  0  0  0  0  0  0  0  0  0  0  0
  137.1910  149.8704  141.8331 C   0  0  0  0  0  0  0  0  0  0  0  0
  136.4707  150.2696  142.9684 C   0  0  0  0  0  0  0  0  0  0  0  0
  135.1320  150.3575  143.2741 C   0  0  0  0  0  0  0  0  0  0  0  0
  134.7294  151.0382  144.5260 C   0  0  0  0  0  0  0  0  0  0  0  0
  137.5216  150.6555  144.0748 C   0  0  0  0  0  0  0  0  0  0  0  0
  135.5802  151.5165  145.2506 C   0  0  0  0  0  0  0  0  0  0  0  0
  137.1990  151.4827  145.0820 C   0  0  0  0  0  0  0  0  0  0  0  0
  135.2770  152.3945  146.4564 C   0  0  0  0  0  0  0  0  0  0  0  0
  138.7773  150.6849  143.3714 C   0  0  0  0  0  0  0  0  0  0  0  0
  140.7041  150.0752  141.0195 C   0  0  0  0  0  0  0  0  0  0  0  0
  1  2  2  0
  1  3  1  0
  3  4  1  0
  4  5  2  0
  5  6  1  0
  6  7  2  0
  5  8  1  0
  7  9  1  0
  8 10  1  0
  9 10  1  0
  9 11  1  0
  3 12  1  0
  8 12  1  0
  1 13  1  0
M  END
$$$$

     RDKit          3D

 13 14  0  0  0  0  0  0  0  0999 V2000
  139.3427  149.9935  140.5880 C   0  0  0  0  0  0  0  0  0  0  0  0
  138.9528  149.9224  139.3656 C   0  0  0  0  0  0  0  0  0  0  0  0
  138.6122  150.1102  141.6416 C   0  0  0  0  0  0  0  0  0  0  0  0
  137.1910  149.8704  141.8331 C   0  0  0  0  0  0  0  0  0  0  0  0
  136.4707  150.2696  142.9684 C   0  0  0  0  0  0  0  0  0  0  0  0
  135.1320  150.3575  143.2741 C   0  0  0  0  0  0  0  0  0  0  0  0
  134.7294  151.0382  144.5260 C   0  0  0  0  0  0  0  0  0  0  0  0
  137.5216  150.6555  144.0748 C   0  0  0  0  0  0  0  0  0  0  0  0
  135.5802  151.5165  145.2506 C   0  0  0  0  0  0  0  0  0  0  0  0
  135.1622  152.3275  146.4591 C   0  0  0  0  0  0  0  0  0  0  0  0
  138.8793  150.4004  143.7058 C   0  0  0  0  0  0  0  0  0  0  0  0
  139.4744  150.5231  142.6728 C   0  0  0  0  0  0  0  0  0  0  0  0
  136.9465  151.2487  145.1279 C   0  0  0  0  0  0  0  0  0  0  0  0
  1  2  2  0
  1  3  1  0
  3  4  1  0
  4  5  2  0
  5  6  1  0
  6  7  2  0
  5  8  1  0
  7  9  1  0
  9 10  1  0
  8 11  1  0
  3 12  2  0
 11 12  1  0
  8 13  1  0
  9 13  2  0
M  END
$$$$

     RDKit          3D

 13 14  0  0  0  0  0  0  0  0999 V2000
  139.3427  149.9935  140.5880 C   0  0  0  0  0  0  0  0  0  0  0  0
  138.9528  149.9224  139.3656 C   0  0  0  0  0  0  0  0  0  0  0  0
  138.6122  150.1102  141.6416 C   0  0  0  0  0  0  0  0  0  0  0  0
  137.1910  149.8704  141.8331 C   0  0  0  0  0  0  0  0  0  0  0  0
  136.5134  149.7658  140.5812 C   0  0  0  0  0  0  0  0  0  0  0  0
  139.1788  150.4012  143.1353 C   0  0  0  0  0  0  0  0  0  0  0  0
  138.2249  150.9731  144.0852 C   0  0  0  0  0  0  0  0  0  0  0  0
  139.6664  149.8788  138.1669 C   0  0  0  0  0  0  0  0  0  0  0  0
  136.4809  150.1375  143.0193 C   0  0  0  0  0  0  0  0  0  0  0  0
  136.9815  150.6515  144.0754 C   0  0  0  0  0  0  0  0  0  0  0  0
  136.1796  151.0744  145.2326 C   0  0  0  0  0  0  0  0  0  0  0  0
  137.4424  149.7155  139.3486 C   0  0  0  0  0  0  0  0  0  0  0  0
  136.4545  151.2961  146.4233 O   0  0  0  0  0  0  0  0  0  0  0  0
  1  2  2  0
  1  3  1  0
  3  4  1  0
  4  5  2  0
  3  6  1  0
  6  7  2  0
  2  8  1  0
  4  9  1  0
  7 10  1  0
  9 10  2  0
 10 11  1  0
  2 12  1  0
  5 12  1  0
 11 13  1  0
M  END
$$$$

     RDKit          3D

 13 14  0  0  0  0  0  0  0  0999 V2000
  139.3427  149.9935  140.5880 C   0  0  0  0  0  0  0  0  0  0  0  0
  138.9528  149.9224  139.3656 C   0  0  0  0  0  0  0  0  0  0  0  0
  138.6122  150.1102  141.6416 C   0  0  0  0  0  0  0  0  0  0  0  0
  137.1910  149.8704  141.8331 C   0  0  0  0  0  0  0  0  0  0  0  0
  136.4707  150.2696  142.9684 C   0  0  0  0  0  0  0  0  0  0  0  0
  135.1320  150.3575  143.2741 C   0  0  0  0  0  0  0  0  0  0  0  0
  134.7294  151.0382  144.5260 C   0  0  0  0  0  0  0  0  0  0  0  0
  137.5216  150.6555  144.0748 C   0  0  0  0  0  0  0  0  0  0  0  0
  135.5802  151.5165  145.2506 C   0  0  0  0  0  0  0  0  0  0  0  0
  135.1622  152.3275  146.4591 C   0  0  0  0  0  0  0  0  0  0  0  0
  138.8793  150.4004  143.7058 C   0  0  0  0  0  0  0  0  0  0  0  0
  137.0151  151.2708  145.3208 C   0  0  0  0  0  0  0  0  0  0  0  0
  139.3941  150.4358  142.8486 C   0  0  0  0  0  0  0  0  0  0  0  0
  1  2  2  0
  1  3  1  0
  3  4  1  0
  4  5  2  0
  5  6  1  0
  6  7  2  0
  5  8  1  0
  7  9  1  0
  9 10  1  0
  8 11  1  0
  8 12  2  0
  9 12  2  0
  3 13  2  0
 11 13  1  0
M  END
$$$$

     RDKit          3D

 13 14  0  0  0  0  0  0  0  0999 V2000
  138.9705  151.3124  142.5681 C   0  0  0  0  0  0  0  0  0  0  0  0
  138.6057  152.0894  143.2653 C   0  0  0  0  0  0  0  0  0  0  0  0
  137.6600  151.8349  144.0467 C   0  0  0  0  0  0  0  0  0  0  0  0
  139.9939  151.3511  141.4314 C   0  0  0  0  0  0  0  0  0  0  0  0
  137.4795  150.6675  144.8972 C   0  0  0  0  0  0  0  0  0  0  0  0
  139.6568  150.7243  140.2644 C   0  0  0  0  0  0  0  0  0  0  0  0
  138.5004  150.0428  140.1974 C   0  0  0  0  0  0  0  0  0  0  0  0
  137.5686  149.8234  141.3807 C   0  0  0  0  0  0  0  0  0  0  0  0
  140.6055  150.7021  139.1138 C   0  0  0  0  0  0  0  0  0  0  0  0
  138.0167  149.4624  138.9383 C   0  0  0  0  0  0  0  0  0  0  0  0
  138.1096  150.4110  142.5230 C   0  0  0  0  0  0  0  0  0  0  0  0
  137.3925  149.7806  143.7407 C   0  0  0  0  0  0  0  0  0  0  0  0
  136.6820  149.1016  138.9465 C   0  0  0  0  0  0  0  0  0  0  0  0
  1  2  2  0
  2  3  1  0
  1  4  1  0
  3  5  2  0
  4  6  2  0
  6  7  1  0
  7  8  1  0
  6  9  1  0
  7 10  2  3
  1 11  1  0
  8 11  1  0
  5 12  1  0
 11 12  2  0
 10 13  1  0
M  END
$$$$

     RDKit          3D

 13 14  0  0  0  0  0  0  0  0999 V2000
  139.3427  149.9935  140.5880 C   0  0  0  0  0  0  0  0  0  0  0  0
  138.9528  149.9224  139.3656 C   0  0  0  0  0  0  0  0  0  0  0  0
  138.6122  150.1102  141.6416 C   0  0  0  0  0  0  0  0  0  0  0  0
  137.1910  149.8704  141.8331 C   0  0  0  0  0  0  0  0  0  0  0  0
  136.5134  149.7658  140.5812 C   0  0  0  0  0  0  0  0  0  0  0  0
  139.1788  150.4012  143.1353 C   0  0  0  0  0  0  0  0  0  0  0  0
  138.2249  150.9731  144.0852 C   0  0  0  0  0  0  0  0  0  0  0  0
  139.6664  149.8788  138.1669 C   0  0  0  0  0  0  0  0  0  0  0  0
  136.4809  150.1375  143.0193 C   0  0  0  0  0  0  0  0  0  0  0  0
  136.9815  150.6515  144.0754 C   0  0  0  0  0  0  0  0  0  0  0  0
  136.1434  151.1468  145.3446 C   0  0  0  0  0  0  0  0  0  0  0  0
  137.2291  149.7328  139.2920 C   0  0  0  0  0  0  0  0  0  0  0  0
  136.4756  151.3604  146.4666 O   0  0  0  0  0  0  0  0  0  0  0  0
  1  2  2  0
  1  3  1  0
  3  4  1  0
  4  5  2  0
  3  6  1  0
  6  7  2  0
  2  8  1  0
  4  9  1  0
  7 10  1  0
  9 10  2  0
 10 11  1  0
  2 12  1  0
  5 12  1  0
 11 13  2  0
M  END
$$$$

     RDKit          3D

 13 14  0  0  0  0  0  0  0  0999 V2000
  138.7090  151.1469  142.6269 C   0  0  0  0  0  0  0  0  0  0  0  0
  138.5260  151.9370  143.5114 C   0  0  0  0  0  0  0  0  0  0  0  0
  137.3819  151.6579  144.3963 C   0  0  0  0  0  0  0  0  0  0  0  0
  139.7051  151.1184  141.6077 C   0  0  0  0  0  0  0  0  0  0  0  0
  136.7557  152.5772  145.3074 C   0  0  0  0  0  0  0  0  0  0  0  0
  139.6288  150.4580  140.3315 C   0  0  0  0  0  0  0  0  0  0  0  0
  138.4571  149.6004  140.4454 C   0  0  0  0  0  0  0  0  0  0  0  0
  135.4568  152.3937  145.7654 C   0  0  0  0  0  0  0  0  0  0  0  0
  137.5807  149.8923  141.3497 C   0  0  0  0  0  0  0  0  0  0  0  0
  137.6649  150.5103  142.4529 C   0  0  0  0  0  0  0  0  0  0  0  0
  140.8234  150.4314  139.4162 C   0  0  0  0  0  0  0  0  0  0  0  0
  136.6406  150.6522  144.4404 C   0  0  0  0  0  0  0  0  0  0  0  0
  135.2151  151.0661  145.3288 C   0  0  0  0  0  0  0  0  0  0  0  0
  1  2  1  0
  2  3  2  3
  1  4  1  0
  3  5  1  0
  4  6  2  0
  6  7  1  0
  5  8  1  0
  7  9  2  0
  1 10  2  0
  9 10  1  0
  6 11  1  0
  3 12  1  0
  8 13  2  0
 12 13  1  0
M  END
$$$$

     RDKit          3D

 13 14  0  0  0  0  0  0  0  0999 V2000
  139.3427  149.9935  140.5880 C   0  0  0  0  0  0  0  0  0  0  0  0
  138.9528  149.9224  139.3656 C   0  0  0  0  0  0  0  0  0  0  0  0
  138.6122  150.1102  141.6416 C   0  0  0  0  0  0  0  0  0  0  0  0
  137.1910  149.8704  141.8331 C   0  0  0  0  0  0  0  0  0  0  0  0
  136.4707  150.2696  142.9684 C   0  0  0  0  0  0  0  0  0  0  0  0
  135.1320  150.3575  143.2741 C   0  0  0  0  0  0  0  0  0  0  0  0
  134.7294  151.0382  144.5260 C   0  0  0  0  0  0  0  0  0  0  0  0
  137.5216  150.6555  144.0748 C   0  0  0  0  0  0  0  0  0  0  0  0
  135.5802  151.5165  145.2506 C   0  0  0  0  0  0  0  0  0  0  0  0
  137.1990  151.4827  145.0820 C   0  0  0  0  0  0  0  0  0  0  0  0
  135.1848  152.4109  146.2774 C   0  0  0  0  0  0  0  0  0  0  0  0
  138.7921  150.8482  143.1711 C   0  0  0  0  0  0  0  0  0  0  0  0
  140.6974  150.0420  141.0153 O   0  0  0  0  0  0  0  0  0  0  0  0
  1  2  2  0
  1  3  1  0
  3  4  1  0
  4  5  2  0
  5  6  1  0
  6  7  2  0
  5  8  1  0
  7  9  1  0
  8 10  1  0
  9 10  1  0
  9 11  1  0
  3 12  1  0
  8 12  1  0
  1 13  1  0
M  END
$$$$

     RDKit          3D

 13 14  0  0  0  0  0  0  0  0999 V2000
  138.7090  151.1469  142.6269 C   0  0  0  0  0  0  0  0  0  0  0  0
  138.5260  151.9370  143.5114 C   0  0  0  0  0  0  0  0  0  0  0  0
  137.3819  151.6579  144.3963 C   0  0  0  0  0  0  0  0  0  0  0  0
  139.7051  151.1184  141.6077 C   0  0  0  0  0  0  0  0  0  0  0  0
  136.7557  152.5772  145.3074 C   0  0  0  0  0  0  0  0  0  0  0  0
  139.6288  150.4580  140.3315 C   0  0  0  0  0  0  0  0  0  0  0  0
  138.4571  149.6004  140.4454 C   0  0  0  0  0  0  0  0  0  0  0  0
  135.4568  152.3937  145.7654 C   0  0  0  0  0  0  0  0  0  0  0  0
  137.5807  149.8923  141.3497 C   0  0  0  0  0  0  0  0  0  0  0  0
  137.6649  150.5103  142.4529 C   0  0  0  0  0  0  0  0  0  0  0  0
  140.8234  150.4314  139.4162 C   0  0  0  0  0  0  0  0  0  0  0  0
  136.6406  150.6522  144.4404 C   0  0  0  0  0  0  0  0  0  0  0  0
  136.6971  150.3229  142.9310 O   0  0  0  0  0  0  0  0  0  0  0  0
  1  2  1  0
  2  3  2  0
  1  4  1  0
  3  5  1  0
  4  6  2  0
  6  7  1  0
  5  8  1  0
  7  9  2  0
  1 10  2  0
  9 10  1  0
  6 11  1  0
  3 12  1  0
 10 13  1  0
 12 13  1  0
M  END
$$$$

     RDKit          3D

 13 13  0  0  0  0  0  0  0  0999 V2000
  138.9705  151.3124  142.5681 C   0  0  0  0  0  0  0  0  0  0  0  0
  138.6057  152.0894  143.2653 C   0  0  0  0  0  0  0  0  0  0  0  0
  137.5209  151.8314  144.2019 C   0  0  0  0  0  0  0  0  0  0  0  0
  136.5811  152.7823  144.6505 C   0  0  0  0  0  0  0  0  0  0  0  0
  139.7956  151.3595  141.3741 C   0  0  0  0  0  0  0  0  0  0  0  0
  135.9804  152.8193  145.6528 C   0  0  0  0  0  0  0  0  0  0  0  0
  139.5360  150.6466  140.2953 C   0  0  0  0  0  0  0  0  0  0  0  0
  136.0633  151.5366  146.3570 C   0  0  0  0  0  0  0  0  0  0  0  0
  138.3949  149.8648  140.3621 C   0  0  0  0  0  0  0  0  0  0  0  0
  137.2544  150.6517  144.9179 C   0  0  0  0  0  0  0  0  0  0  0  0
  138.0623  149.4888  144.4356 O   0  0  0  0  0  0  0  0  0  0  0  0
  135.1975  151.5321  147.6334 C   0  0  0  0  0  0  0  0  0  0  0  0
  136.5493  150.3497  145.9393 C   0  0  0  0  0  0  0  0  0  0  0  0
  1  2  2  3
  2  3  1  0
  3  4  1  0
  1  5  1  0
  4  6  2  0
  5  7  2  3
  6  8  1  0
  7  9  1  0
  3 10  2  0
 10 11  1  0
  8 12  1  0
  8 13  2  0
 10 13  1  0
M  END
$$$$

     RDKit          3D

 13 14  0  0  0  0  0  0  0  0999 V2000
  138.7090  151.1469  142.6269 C   0  0  0  0  0  0  0  0  0  0  0  0
  138.5260  151.9370  143.5114 C   0  0  0  0  0  0  0  0  0  0  0  0
  137.3819  151.6579  144.3963 C   0  0  0  0  0  0  0  0  0  0  0  0
  139.7051  151.1184  141.6077 C   0  0  0  0  0  0  0  0  0  0  0  0
  136.7072  150.4347  144.0265 C   0  0  0  0  0  0  0  0  0  0  0  0
  139.4496  150.8400  140.3164 C   0  0  0  0  0  0  0  0  0  0  0  0
  138.1688  150.1903  140.1998 C   0  0  0  0  0  0  0  0  0  0  0  0
  137.2447  149.9095  141.0994 C   0  0  0  0  0  0  0  0  0  0  0  0
  137.5275  150.3001  142.3602 C   0  0  0  0  0  0  0  0  0  0  0  0
  136.6590  149.9229  143.2415 N   0  0  0  0  0  0  0  0  0  0  0  0
  137.2555  152.5313  145.4487 O   0  0  0  0  0  0  0  0  0  0  0  0
  136.1703  150.4497  145.7262 C   0  0  0  0  0  0  0  0  0  0  0  0
  136.1104  151.8926  146.0831 C   0  0  0  0  0  0  0  0  0  0  0  0
  1  2  1  0
  2  3  2  3
  1  4  1  0
  3  5  1  0
  4  6  2  0
  6  7  1  0
  7  8  2  0
  1  9  2  0
  8  9  1  0
  9 10  1  0
  3 11  1  0
  5 12  1  0
 11 13  1  0
 12 13  1  0
M  END
$$$$

     RDKit          3D

 13 14  0  0  0  0  0  0  0  0999 V2000
  139.5348  150.8906  142.2305 C   0  0  0  0  0  0  0  0  0  0  0  0
  139.0139  150.3976  141.0574 C   0  0  0  0  0  0  0  0  0  0  0  0
  138.6965  150.9489  143.4028 C   0  0  0  0  0  0  0  0  0  0  0  0
  137.7130  149.9460  141.0427 C   0  0  0  0  0  0  0  0  0  0  0  0
  137.5183  150.9374  143.4785 C   0  0  0  0  0  0  0  0  0  0  0  0
  136.6733  151.1274  144.6812 C   0  0  0  0  0  0  0  0  0  0  0  0
  139.8472  150.3901  139.8637 C   0  0  0  0  0  0  0  0  0  0  0  0
  136.7200  150.2063  141.8846 C   0  0  0  0  0  0  0  0  0  0  0  0
  136.4930  150.6203  143.0434 C   0  0  0  0  0  0  0  0  0  0  0  0
  139.3609  150.4992  138.6511 C   0  0  0  0  0  0  0  0  0  0  0  0
  141.2279  150.2661  140.1137 C   0  0  0  0  0  0  0  0  0  0  0  0
  135.4639  151.0224  143.8455 N   0  0  0  0  0  0  0  0  0  0  0  0
  135.5292  151.2707  144.9727 C   0  0  0  0  0  0  0  0  0  0  0  0
  1  2  2  0
  1  3  1  0
  2  4  1  0
  3  5  2  0
  5  6  1  0
  2  7  1  0
  4  8  2  0
  5  9  1  0
  8  9  1  0
  7 10  1  0
  7 11  2  0
  9 12  1  0
  6 13  2  0
 12 13  2  0
M  END
$$$$

     RDKit          3D

 13 14  0  0  0  0  0  0  0  0999 V2000
  139.3427  149.9935  140.5880 C   0  0  0  0  0  0  0  0  0  0  0  0
  138.9528  149.9224  139.3656 C   0  0  0  0  0  0  0  0  0  0  0  0
  138.6122  150.1102  141.6416 C   0  0  0  0  0  0  0  0  0  0  0  0
  137.1910  149.8704  141.8331 C   0  0  0  0  0  0  0  0  0  0  0  0
  136.5134  149.7658  140.5812 C   0  0  0  0  0  0  0  0  0  0  0  0
  139.1788  150.4012  143.1353 C   0  0  0  0  0  0  0  0  0  0  0  0
  138.2249  150.9731  144.0852 C   0  0  0  0  0  0  0  0  0  0  0  0
  139.6664  149.8788  138.1669 C   0  0  0  0  0  0  0  0  0  0  0  0
  136.6533  150.3823  143.0155 C   0  0  0  0  0  0  0  0  0  0  0  0
  137.4059  149.8333  139.3614 C   0  0  0  0  0  0  0  0  0  0  0  0
  137.0482  150.7664  144.0985 C   0  0  0  0  0  0  0  0  0  0  0  0
  136.2496  151.4276  145.2710 C   0  0  0  0  0  0  0  0  0  0  0  0
  135.1742  152.1900  144.9336 C   0  0  0  0  0  0  0  0  0  0  0  0
  1  2  2  0
  1  3  1  0
  3  4  1  0
  4  5  2  0
  3  6  1  0
  6  7  2  0
  2  8  1  0
  4  9  1  0
  2 10  1  0
  5 10  1  0
  7 11  1  0
  9 11  2  0
 11 12  1  0
 12 13  1  0
M  END
$$$$

     RDKit          3D

 13 14  0  0  0  0  0  0  0  0999 V2000
  138.7090  151.1469  142.6269 C   0  0  0  0  0  0  0  0  0  0  0  0
  138.5260  151.9370  143.5114 C   0  0  0  0  0  0  0  0  0  0  0  0
  137.3819  151.6579  144.3963 C   0  0  0  0  0  0  0  0  0  0  0  0
  139.7051  151.1184  141.6077 C   0  0  0  0  0  0  0  0  0  0  0  0
  139.4637  150.8262  140.3138 C   0  0  0  0  0  0  0  0  0  0  0  0
  138.1443  150.1615  140.2328 C   0  0  0  0  0  0  0  0  0  0  0  0
  137.8478  149.6487  138.8336 C   0  0  0  0  0  0  0  0  0  0  0  0
  137.2643  149.9895  141.3145 C   0  0  0  0  0  0  0  0  0  0  0  0
  135.9218  149.4173  140.9862 C   0  0  0  0  0  0  0  0  0  0  0  0
  137.6110  150.4170  142.5074 C   0  0  0  0  0  0  0  0  0  0  0  0
  137.0843  152.1599  145.6485 C   0  0  0  0  0  0  0  0  0  0  0  0
  135.7004  152.4740  145.9632 C   0  0  0  0  0  0  0  0  0  0  0  0
  136.8069  150.4022  143.7062 N   0  0  0  0  0  0  0  0  0  0  0  0
  1  2  1  0
  2  3  2  0
  1  4  1  0
  4  5  2  0
  5  6  1  0
  6  7  1  0
  6  8  2  0
  8  9  1  0
  1 10  2  0
  8 10  1  0
  3 11  1  0
 11 12  2  0
  3 13  1  0
 10 13  1  0
M  END
$$$$

     RDKit          3D

 13 14  0  0  0  0  0  0  0  0999 V2000
  139.5348  150.8906  142.2305 C   0  0  0  0  0  0  0  0  0  0  0  0
  139.0139  150.3976  141.0574 C   0  0  0  0  0  0  0  0  0  0  0  0
  138.6965  150.9489  143.4028 C   0  0  0  0  0  0  0  0  0  0  0  0
  137.7130  149.9460  141.0427 C   0  0  0  0  0  0  0  0  0  0  0  0
  137.5183  150.9374  143.4785 C   0  0  0  0  0  0  0  0  0  0  0  0
  136.6733  151.1274  144.6812 C   0  0  0  0  0  0  0  0  0  0  0  0
  139.8472  150.3901  139.8637 C   0  0  0  0  0  0  0  0  0  0  0  0
  136.7200  150.2063  141.8846 C   0  0  0  0  0  0  0  0  0  0  0  0
  136.4930  150.6203  143.0434 C   0  0  0  0  0  0  0  0  0  0  0  0
  139.3609  150.4992  138.6511 C   0  0  0  0  0  0  0  0  0  0  0  0
  141.2279  150.2661  140.1137 C   0  0  0  0  0  0  0  0  0  0  0  0
  135.8498  151.8394  144.7020 C   0  0  0  0  0  0  0  0  0  0  0  0
  135.2958  151.0593  143.5878 N   0  0  0  0  0  0  0  0  0  0  0  0
  1  2  2  0
  1  3  1  0
  2  4  1  0
  3  5  2  0
  5  6  1  0
  2  7  1  0
  4  8  2  0
  5  9  1  0
  8  9  1  0
  7 10  1  0
  7 11  2  0
  6 12  2  0
  9 13  1  0
 12 13  1  0
M  END
$$$$

     RDKit          3D

 13 14  0  0  0  0  0  0  0  0999 V2000
  138.9705  151.3124  142.5681 C   0  0  0  0  0  0  0  0  0  0  0  0
  138.6057  152.0894  143.2653 C   0  0  0  0  0  0  0  0  0  0  0  0
  137.6600  151.8349  144.0467 C   0  0  0  0  0  0  0  0  0  0  0  0
  139.9939  151.3511  141.4314 C   0  0  0  0  0  0  0  0  0  0  0  0
  137.4795  150.6675  144.8972 C   0  0  0  0  0  0  0  0  0  0  0  0
  139.6568  150.7243  140.2644 C   0  0  0  0  0  0  0  0  0  0  0  0
  138.5004  150.0428  140.1974 C   0  0  0  0  0  0  0  0  0  0  0  0
  137.5686  149.8234  141.3807 C   0  0  0  0  0  0  0  0  0  0  0  0
  136.3093  149.2802  141.1766 C   0  0  0  0  0  0  0  0  0  0  0  0
  138.1078  150.4070  142.5636 C   0  0  0  0  0  0  0  0  0  0  0  0
  137.4433  149.7661  143.6829 N   0  0  0  0  0  0  0  0  0  0  0  0
  138.0444  149.4305  139.0202 C   0  0  0  0  0  0  0  0  0  0  0  0
  139.0103  149.5149  137.9777 C   0  0  0  0  0  0  0  0  0  0  0  0
  1  2  2  0
  2  3  1  0
  1  4  1  0
  3  5  2  0
  4  6  2  0
  6  7  1  0
  7  8  1  0
  8  9  2  0
  1 10  1  0
  8 10  1  0
  5 11  1  0
 10 11  2  0
  7 12  2  3
 12 13  1  0
M  END
$$$$

     RDKit          3D

 13 14  0  0  0  0  0  0  0  0999 V2000
  139.0004  149.7631  140.3649 C   0  0  0  0  0  0  0  0  0  0  0  0
  138.7142  149.5451  139.1249 C   0  0  0  0  0  0  0  0  0  0  0  0
  138.1856  150.1072  141.2839 C   0  0  0  0  0  0  0  0  0  0  0  0
  137.3213  149.5926  138.6821 C   0  0  0  0  0  0  0  0  0  0  0  0
  136.3776  149.8122  139.7323 C   0  0  0  0  0  0  0  0  0  0  0  0
  138.6498  150.4524  142.6761 C   0  0  0  0  0  0  0  0  0  0  0  0
  137.8095  150.9703  143.6446 C   0  0  0  0  0  0  0  0  0  0  0  0
  136.5355  151.0899  143.2204 C   0  0  0  0  0  0  0  0  0  0  0  0
  135.6032  151.5335  144.2586 C   0  0  0  0  0  0  0  0  0  0  0  0
  136.7388  150.1451  141.0023 C   0  0  0  0  0  0  0  0  0  0  0  0
  135.7984  150.8554  142.2536 C   0  0  0  0  0  0  0  0  0  0  0  0
  135.5726  152.8104  144.7655 C   0  0  0  0  0  0  0  0  0  0  0  0
  135.9877  153.1083  146.1213 C   0  0  0  0  0  0  0  0  0  0  0  0
  1  2  2  0
  1  3  1  0
  2  4  1  0
  4  5  2  0
  3  6  1  0
  6  7  2  0
  7  8  1  0
  8  9  1  0
  3 10  2  0
  5 10  1  0
  8 11  2  0
 10 11  1  0
  9 12  1  0
 12 13  1  0
M  END
$$$$

     RDKit          3D

 13 14  0  0  0  0  0  0  0  0999 V2000
  139.3427  149.9935  140.5880 C   0  0  0  0  0  0  0  0  0  0  0  0
  138.9528  149.9224  139.3656 C   0  0  0  0  0  0  0  0  0  0  0  0
  138.6122  150.1102  141.6416 C   0  0  0  0  0  0  0  0  0  0  0  0
  137.1910  149.8704  141.8331 C   0  0  0  0  0  0  0  0  0  0  0  0
  136.4707  150.2696  142.9684 C   0  0  0  0  0  0  0  0  0  0  0  0
  135.1320  150.3575  143.2741 C   0  0  0  0  0  0  0  0  0  0  0  0
  134.7294  151.0382  144.5260 C   0  0  0  0  0  0  0  0  0  0  0  0
  137.5216  150.6555  144.0748 C   0  0  0  0  0  0  0  0  0  0  0  0
  135.5802  151.5165  145.2506 C   0  0  0  0  0  0  0  0  0  0  0  0
  135.1622  152.3275  146.4591 C   0  0  0  0  0  0  0  0  0  0  0  0
  138.8793  150.4004  143.7058 C   0  0  0  0  0  0  0  0  0  0  0  0
  139.4346  150.6572  142.7153 C   0  0  0  0  0  0  0  0  0  0  0  0
  136.8807  151.2677  145.1677 C   0  0  0  0  0  0  0  0  0  0  0  0
  1  2  2  0
  1  3  1  0
  3  4  1  0
  4  5  2  0
  5  6  1  0
  6  7  2  0
  5  8  1  0
  7  9  1  0
  9 10  1  0
  8 11  1  0
  3 12  1  0
 11 12  1  0
  8 13  2  0
  9 13  2  0
M  END
$$$$

     RDKit          3D

 13 14  0  0  0  0  0  0  0  0999 V2000
  139.5348  150.8906  142.2305 C   0  0  0  0  0  0  0  0  0  0  0  0
  139.0139  150.3976  141.0574 C   0  0  0  0  0  0  0  0  0  0  0  0
  138.6965  150.9489  143.4028 C   0  0  0  0  0  0  0  0  0  0  0  0
  137.7130  149.9460  141.0427 C   0  0  0  0  0  0  0  0  0  0  0  0
  137.5183  150.9374  143.4785 C   0  0  0  0  0  0  0  0  0  0  0  0
  136.6733  151.1274  144.6812 C   0  0  0  0  0  0  0  0  0  0  0  0
  139.8472  150.3901  139.8637 C   0  0  0  0  0  0  0  0  0  0  0  0
  136.7200  150.2063  141.8846 C   0  0  0  0  0  0  0  0  0  0  0  0
  136.4930  150.6203  143.0434 C   0  0  0  0  0  0  0  0  0  0  0  0
  139.3609  150.4992  138.6511 C   0  0  0  0  0  0  0  0  0  0  0  0
  135.2497  150.8986  143.6322 C   0  0  0  0  0  0  0  0  0  0  0  0
  141.0619  150.5954  140.2545 C   0  0  0  0  0  0  0  0  0  0  0  0
  135.4109  151.2461  144.8501 C   0  0  0  0  0  0  0  0  0  0  0  0
  1  2  2  0
  1  3  1  0
  2  4  1  0
  3  5  2  0
  5  6  1  0
  2  7  1  0
  4  8  2  0
  5  9  1  0
  8  9  1  0
  7 10  1  0
  9 11  2  0
  7 12  2  0
  6 13  2  0
 11 13  1  0
M  END
$$$$

     RDKit          3D

 13 14  0  0  0  0  0  0  0  0999 V2000
  140.3036  150.2148  139.4783 Cl  0  0  0  0  0  0  0  0  0  0  0  0
  138.6783  150.1860  140.5319 C   0  0  0  0  0  0  0  0  0  0  0  0
  137.6385  149.3831  140.0945 C   0  0  0  0  0  0  0  0  0  0  0  0
  138.7505  150.9487  141.6715 C   0  0  0  0  0  0  0  0  0  0  0  0
  136.5606  149.6034  140.7973 C   0  0  0  0  0  0  0  0  0  0  0  0
  135.2960  149.0163  140.1852 C   0  0  0  0  0  0  0  0  0  0  0  0
  136.5422  150.4642  141.8563 C   0  0  0  0  0  0  0  0  0  0  0  0
  135.3353  150.6737  142.7430 C   0  0  0  0  0  0  0  0  0  0  0  0
  135.7908  151.4836  143.9525 C   0  0  0  0  0  0  0  0  0  0  0  0
  135.1610  151.6622  145.0840 C   0  0  0  0  0  0  0  0  0  0  0  0
  137.1469  151.9414  143.8050 C   0  0  0  0  0  0  0  0  0  0  0  0
  137.6775  151.1253  142.3956 C   0  0  0  0  0  0  0  0  0  0  0  0
  135.2191  152.6113  145.8710 C   0  0  0  0  0  0  0  0  0  0  0  0
  1  2  1  0
  2  3  2  0
  2  4  1  0
  3  5  1  0
  5  6  1  0
  5  7  2  0
  7  8  1  0
  8  9  1  0
  9 10  1  0
  9 11  2  0
  4 12  2  0
  7 12  1  0
 11 12  1  0
 10 13  2  0
M  END
$$$$

     RDKit          3D

 13 14  0  0  0  0  0  0  0  0999 V2000
  139.5348  150.8906  142.2305 C   0  0  0  0  0  0  0  0  0  0  0  0
  139.0139  150.3976  141.0574 C   0  0  0  0  0  0  0  0  0  0  0  0
  138.6965  150.9489  143.4028 C   0  0  0  0  0  0  0  0  0  0  0  0
  137.7130  149.9460  141.0427 C   0  0  0  0  0  0  0  0  0  0  0  0
  137.5183  150.9374  143.4785 C   0  0  0  0  0  0  0  0  0  0  0  0
  136.6733  151.1274  144.6812 C   0  0  0  0  0  0  0  0  0  0  0  0
  139.8472  150.3901  139.8637 C   0  0  0  0  0  0  0  0  0  0  0  0
  136.7200  150.2063  141.8846 C   0  0  0  0  0  0  0  0  0  0  0  0
  136.4930  150.6203  143.0434 C   0  0  0  0  0  0  0  0  0  0  0  0
  139.3609  150.4992  138.6511 C   0  0  0  0  0  0  0  0  0  0  0  0
  141.0593  150.6025  140.2414 O   0  0  0  0  0  0  0  0  0  0  0  0
  135.4408  151.0137  143.8327 N   0  0  0  0  0  0  0  0  0  0  0  0
  135.6656  151.3227  144.8584 C   0  0  0  0  0  0  0  0  0  0  0  0
  1  2  2  0
  1  3  1  0
  2  4  1  0
  3  5  2  0
  5  6  1  0
  2  7  1  0
  4  8  2  0
  5  9  1  0
  8  9  1  0
  7 10  1  0
  7 11  2  0
  9 12  1  0
  6 13  2  0
 12 13  2  0
M  END
$$$$

     RDKit          3D

 13 14  0  0  0  0  0  0  0  0999 V2000
  139.5348  150.8906  142.2305 C   0  0  0  0  0  0  0  0  0  0  0  0
  139.0139  150.3976  141.0574 C   0  0  0  0  0  0  0  0  0  0  0  0
  138.6965  150.9489  143.4028 C   0  0  0  0  0  0  0  0  0  0  0  0
  137.7130  149.9460  141.0427 C   0  0  0  0  0  0  0  0  0  0  0  0
  137.5183  150.9374  143.4785 C   0  0  0  0  0  0  0  0  0  0  0  0
  136.6733  151.1274  144.6812 C   0  0  0  0  0  0  0  0  0  0  0  0
  139.8472  150.3901  139.8637 C   0  0  0  0  0  0  0  0  0  0  0  0
  136.7200  150.2063  141.8846 C   0  0  0  0  0  0  0  0  0  0  0  0
  136.4930  150.6203  143.0434 C   0  0  0  0  0  0  0  0  0  0  0  0
  135.8664  151.8203  144.7141 C   0  0  0  0  0  0  0  0  0  0  0  0
  135.0712  152.5387  145.8229 C   0  0  0  0  0  0  0  0  0  0  0  0
  139.3709  150.4965  138.6493 C   0  0  0  0  0  0  0  0  0  0  0  0
  135.2839  151.1576  143.4830 N   0  0  0  0  0  0  0  0  0  0  0  0
  1  2  2  0
  1  3  1  0
  2  4  1  0
  3  5  2  0
  5  6  1  0
  2  7  1  0
  4  8  2  0
  5  9  1  0
  8  9  1  0
  6 10  2  0
 10 11  1  0
  7 12  2  0
  9 13  1  0
 10 13  1  0
M  END
$$$$

     RDKit          3D

 13 13  0  0  0  0  0  0  0  0999 V2000
  140.3036  150.2148  139.4783 Cl  0  0  0  0  0  0  0  0  0  0  0  0
  138.6783  150.1860  140.5319 C   0  0  0  0  0  0  0  0  0  0  0  0
  137.6385  149.3831  140.0945 C   0  0  0  0  0  0  0  0  0  0  0  0
  139.0332  150.8824  141.6179 C   0  0  0  0  0  0  0  0  0  0  0  0
  136.6575  149.6448  140.8215 C   0  0  0  0  0  0  0  0  0  0  0  0
  135.2931  149.1275  140.2769 C   0  0  0  0  0  0  0  0  0  0  0  0
  136.7024  150.5097  141.8835 C   0  0  0  0  0  0  0  0  0  0  0  0
  135.5279  150.7540  142.7997 C   0  0  0  0  0  0  0  0  0  0  0  0
  136.0533  151.3559  144.1204 C   0  0  0  0  0  0  0  0  0  0  0  0
  138.0052  151.0510  142.3830 C   0  0  0  0  0  0  0  0  0  0  0  0
  135.0869  151.6683  145.1489 C   0  0  0  0  0  0  0  0  0  0  0  0
  133.9439  151.4944  145.2618 C   0  0  0  0  0  0  0  0  0  0  0  0
  135.8703  152.4084  146.2702 C   0  0  0  0  0  0  0  0  0  0  0  0
  1  2  1  0
  2  3  2  0
  2  4  1  0
  3  5  1  0
  5  6  1  0
  5  7  2  0
  7  8  1  0
  8  9  2  3
  4 10  2  0
  7 10  1  0
  9 11  1  0
 11 12  2  0
 11 13  1  0
M  END
$$$$

     RDKit          3D

 13 14  0  0  0  0  0  0  0  0999 V2000
  138.7090  151.1469  142.6269 C   0  0  0  0  0  0  0  0  0  0  0  0
  138.5260  151.9370  143.5114 C   0  0  0  0  0  0  0  0  0  0  0  0
  137.3819  151.6579  144.3963 C   0  0  0  0  0  0  0  0  0  0  0  0
  139.7051  151.1184  141.6077 C   0  0  0  0  0  0  0  0  0  0  0  0
  139.4637  150.8262  140.3138 C   0  0  0  0  0  0  0  0  0  0  0  0
  138.1443  150.1615  140.2328 C   0  0  0  0  0  0  0  0  0  0  0  0
  137.8478  149.6487  138.8336 C   0  0  0  0  0  0  0  0  0  0  0  0
  137.2643  149.9895  141.3145 C   0  0  0  0  0  0  0  0  0  0  0  0
  135.9218  149.4173  140.9862 C   0  0  0  0  0  0  0  0  0  0  0  0
  137.6110  150.4170  142.5074 C   0  0  0  0  0  0  0  0  0  0  0  0
  137.0843  152.1599  145.6485 C   0  0  0  0  0  0  0  0  0  0  0  0
  135.7004  152.4740  145.9632 C   0  0  0  0  0  0  0  0  0  0  0  0
  136.5403  150.6436  143.6519 C   0  0  0  0  0  0  0  0  0  0  0  0
  1  2  1  0
  2  3  2  0
  1  4  1  0
  4  5  2  0
  5  6  1  0
  6  7  1  0
  6  8  2  0
  8  9  1  0
  1 10  2  0
  8 10  1  0
  3 11  1  0
 11 12  2  0
  3 13  1  0
 10 13  1  0
M  END
$$$$

     RDKit          3D

 13 13  0  0  0  0  0  0  0  0999 V2000
  138.7090  151.1469  142.6269 C   0  0  0  0  0  0  0  0  0  0  0  0
  138.5260  151.9370  143.5114 C   0  0  0  0  0  0  0  0  0  0  0  0
  137.3914  151.8088  144.0737 C   0  0  0  0  0  0  0  0  0  0  0  0
  138.6945  150.6819  141.4251 C   0  0  0  0  0  0  0  0  0  0  0  0
  136.4561  150.8624  143.7041 C   0  0  0  0  0  0  0  0  0  0  0  0
  136.9596  152.6921  145.2656 C   0  0  0  0  0  0  0  0  0  0  0  0
  138.9201  150.0702  140.0443 C   0  0  0  0  0  0  0  0  0  0  0  0
  137.8842  149.5581  139.5378 C   0  0  0  0  0  0  0  0  0  0  0  0
  140.0729  150.3071  139.9306 C   0  0  0  0  0  0  0  0  0  0  0  0
  138.0253  149.2627  138.5013 C   0  0  0  0  0  0  0  0  0  0  0  0
  140.4787  149.8385  138.5333 C   0  0  0  0  0  0  0  0  0  0  0  0
  141.8037  149.9172  138.0312 C   0  0  0  0  0  0  0  0  0  0  0  0
  139.3133  149.1784  137.6971 C   0  0  0  0  0  0  0  0  0  0  0  0
  1  2  1  0
  2  3  2  3
  1  4  3  0
  3  5  1  0
  3  6  1  0
  4  7  1  0
  7  8  2  0
  7  9  1  0
  8 10  1  0
  9 11  2  0
 11 12  1  0
 10 13  2  0
 11 13  1  0
M  END
$$$$

     RDKit          3D

 13 14  0  0  0  0  0  0  0  0999 V2000
  139.3427  149.9935  140.5880 C   0  0  0  0  0  0  0  0  0  0  0  0
  138.9528  149.9224  139.3656 C   0  0  0  0  0  0  0  0  0  0  0  0
  138.6122  150.1102  141.6416 C   0  0  0  0  0  0  0  0  0  0  0  0
  137.1910  149.8704  141.8331 C   0  0  0  0  0  0  0  0  0  0  0  0
  136.5134  149.7658  140.5812 C   0  0  0  0  0  0  0  0  0  0  0  0
  139.1788  150.4012  143.1353 C   0  0  0  0  0  0  0  0  0  0  0  0
  138.2249  150.9731  144.0852 C   0  0  0  0  0  0  0  0  0  0  0  0
  139.6664  149.8788  138.1669 C   0  0  0  0  0  0  0  0  0  0  0  0
  136.6533  150.3823  143.0155 C   0  0  0  0  0  0  0  0  0  0  0  0
  137.4059  149.8333  139.3614 C   0  0  0  0  0  0  0  0  0  0  0  0
  137.0482  150.7664  144.0985 C   0  0  0  0  0  0  0  0  0  0  0  0
  136.2496  151.4276  145.2710 C   0  0  0  0  0  0  0  0  0  0  0  0
  136.5832  151.5355  146.4758 C   0  0  0  0  0  0  0  0  0  0  0  0
  1  2  2  0
  1  3  1  0
  3  4  1  0
  4  5  2  0
  3  6  1  0
  6  7  2  0
  2  8  1  0
  4  9  1  0
  2 10  1  0
  5 10  1  0
  7 11  1  0
  9 11  2  0
 11 12  1  0
 12 13  2  0
M  END
$$$$

     RDKit          3D

 13 14  0  0  0  0  0  0  0  0999 V2000
  139.5348  150.8906  142.2305 C   0  0  0  0  0  0  0  0  0  0  0  0
  139.0139  150.3976  141.0574 C   0  0  0  0  0  0  0  0  0  0  0  0
  138.6965  150.9489  143.4028 C   0  0  0  0  0  0  0  0  0  0  0  0
  137.7130  149.9460  141.0427 C   0  0  0  0  0  0  0  0  0  0  0  0
  137.5183  150.9374  143.4785 C   0  0  0  0  0  0  0  0  0  0  0  0
  136.6733  151.1274  144.6812 C   0  0  0  0  0  0  0  0  0  0  0  0
  139.8472  150.3901  139.8637 C   0  0  0  0  0  0  0  0  0  0  0  0
  136.7200  150.2063  141.8846 C   0  0  0  0  0  0  0  0  0  0  0  0
  136.4930  150.6203  143.0434 C   0  0  0  0  0  0  0  0  0  0  0  0
  139.3609  150.4992  138.6511 C   0  0  0  0  0  0  0  0  0  0  0  0
  141.0593  150.6025  140.2414 O   0  0  0  0  0  0  0  0  0  0  0  0
  135.4254  151.4261  144.6122 C   0  0  0  0  0  0  0  0  0  0  0  0
  135.1357  150.8839  143.4066 N   0  0  0  0  0  0  0  0  0  0  0  0
  1  2  2  0
  1  3  1  0
  2  4  1  0
  3  5  2  0
  5  6  1  0
  2  7  1  0
  4  8  2  0
  5  9  1  0
  8  9  1  0
  7 10  1  0
  7 11  2  0
  6 12  1  0
  9 13  1  0
 12 13  1  0
M  END
$$$$

     RDKit          3D

 13 14  0  0  0  0  0  0  0  0999 V2000
  139.5348  150.8906  142.2305 C   0  0  0  0  0  0  0  0  0  0  0  0
  139.0139  150.3976  141.0574 C   0  0  0  0  0  0  0  0  0  0  0  0
  138.6965  150.9489  143.4028 C   0  0  0  0  0  0  0  0  0  0  0  0
  137.7130  149.9460  141.0427 C   0  0  0  0  0  0  0  0  0  0  0  0
  137.5183  150.9374  143.4785 C   0  0  0  0  0  0  0  0  0  0  0  0
  136.6733  151.1274  144.6812 C   0  0  0  0  0  0  0  0  0  0  0  0
  139.8472  150.3901  139.8637 C   0  0  0  0  0  0  0  0  0  0  0  0
  136.7200  150.2063  141.8846 C   0  0  0  0  0  0  0  0  0  0  0  0
  136.4930  150.6203  143.0434 C   0  0  0  0  0  0  0  0  0  0  0  0
  139.3609  150.4992  138.6511 C   0  0  0  0  0  0  0  0  0  0  0  0
  141.0593  150.6025  140.2414 O   0  0  0  0  0  0  0  0  0  0  0  0
  135.8666  151.8257  144.7378 C   0  0  0  0  0  0  0  0  0  0  0  0
  135.2566  151.4459  143.4652 C   0  0  0  0  0  0  0  0  0  0  0  0
  1  2  2  0
  1  3  1  0
  2  4  1  0
  3  5  2  0
  5  6  1  0
  2  7  1  0
  4  8  2  0
  5  9  1  0
  8  9  1  0
  7 10  1  0
  7 11  2  0
  6 12  1  0
  9 13  1  0
 12 13  2  0
M  END
$$$$

     RDKit          3D

 13 14  0  0  0  0  0  0  0  0999 V2000
  140.3036  150.2148  139.4783 Cl  0  0  0  0  0  0  0  0  0  0  0  0
  138.6783  150.1860  140.5319 C   0  0  0  0  0  0  0  0  0  0  0  0
  137.6385  149.3831  140.0945 C   0  0  0  0  0  0  0  0  0  0  0  0
  139.0332  150.8824  141.6179 C   0  0  0  0  0  0  0  0  0  0  0  0
  136.6575  149.6448  140.8215 C   0  0  0  0  0  0  0  0  0  0  0  0
  136.6519  150.4533  141.8775 C   0  0  0  0  0  0  0  0  0  0  0  0
  135.4324  150.7378  142.7868 C   0  0  0  0  0  0  0  0  0  0  0  0
  135.9124  151.2971  144.0363 C   0  0  0  0  0  0  0  0  0  0  0  0
  135.1483  151.6877  145.1219 C   0  0  0  0  0  0  0  0  0  0  0  0
  137.2035  151.4305  144.3067 C   0  0  0  0  0  0  0  0  0  0  0  0
  137.8658  151.0877  142.3896 C   0  0  0  0  0  0  0  0  0  0  0  0
  135.4864  152.8148  145.7784 C   0  0  0  0  0  0  0  0  0  0  0  0
  138.3114  151.5832  143.5857 C   0  0  0  0  0  0  0  0  0  0  0  0
  1  2  1  0
  2  3  2  0
  2  4  1  0
  3  5  1  0
  5  6  2  0
  6  7  1  0
  7  8  2  0
  8  9  1  0
  8 10  1  0
  4 11  2  0
  6 11  1  0
  9 12  1  0
 10 13  2  0
 11 13  1  0
M  END
$$$$

     RDKit          3D

 13 14  0  0  0  0  0  0  0  0999 V2000
  139.3427  149.9935  140.5880 C   0  0  0  0  0  0  0  0  0  0  0  0
  138.9528  149.9224  139.3656 C   0  0  0  0  0  0  0  0  0  0  0  0
  138.6122  150.1102  141.6416 C   0  0  0  0  0  0  0  0  0  0  0  0
  137.1910  149.8704  141.8331 C   0  0  0  0  0  0  0  0  0  0  0  0
  136.4707  150.2696  142.9684 C   0  0  0  0  0  0  0  0  0  0  0  0
  135.1320  150.3575  143.2741 C   0  0  0  0  0  0  0  0  0  0  0  0
  134.7294  151.0382  144.5260 C   0  0  0  0  0  0  0  0  0  0  0  0
  137.5216  150.6555  144.0748 C   0  0  0  0  0  0  0  0  0  0  0  0
  135.5802  151.5165  145.2506 C   0  0  0  0  0  0  0  0  0  0  0  0
  135.1622  152.3275  146.4591 C   0  0  0  0  0  0  0  0  0  0  0  0
  137.2855  151.5520  145.0606 C   0  0  0  0  0  0  0  0  0  0  0  0
  138.9301  150.5968  143.5342 C   0  0  0  0  0  0  0  0  0  0  0  0
  140.8029  150.1732  140.8226 C   0  0  0  0  0  0  0  0  0  0  0  0
  1  2  2  0
  1  3  1  0
  3  4  1  0
  4  5  2  0
  5  6  1  0
  6  7  2  0
  5  8  1  0
  7  9  1  0
  9 10  1  0
  8 11  1  0
  9 11  2  0
  3 12  1  0
  8 12  1  0
  1 13  1  0
M  END
$$$$

     RDKit          3D

 13 14  0  0  0  0  0  0  0  0999 V2000
  139.3427  149.9935  140.5880 C   0  0  0  0  0  0  0  0  0  0  0  0
  138.9528  149.9224  139.3656 C   0  0  0  0  0  0  0  0  0  0  0  0
  138.6122  150.1102  141.6416 C   0  0  0  0  0  0  0  0  0  0  0  0
  137.1910  149.8704  141.8331 C   0  0  0  0  0  0  0  0  0  0  0  0
  136.5134  149.7658  140.5812 C   0  0  0  0  0  0  0  0  0  0  0  0
  139.1788  150.4012  143.1353 C   0  0  0  0  0  0  0  0  0  0  0  0
  138.2249  150.9731  144.0852 C   0  0  0  0  0  0  0  0  0  0  0  0
  136.4855  150.1086  143.0259 C   0  0  0  0  0  0  0  0  0  0  0  0
  139.6856  149.9021  138.1886 C   0  0  0  0  0  0  0  0  0  0  0  0
  136.9969  150.6445  144.1273 C   0  0  0  0  0  0  0  0  0  0  0  0
  135.1590  149.5880  140.4716 C   0  0  0  0  0  0  0  0  0  0  0  0
  137.4346  149.6574  139.2970 C   0  0  0  0  0  0  0  0  0  0  0  0
  136.0359  151.0067  145.4273 C   0  0  0  0  0  0  0  0  0  0  0  0
  1  2  2  0
  1  3  1  0
  3  4  1  0
  4  5  2  0
  3  6  1  0
  6  7  2  0
  4  8  1  0
  2  9  1  0
  7 10  1  0
  8 10  2  0
  5 11  1  0
  2 12  1  0
  5 12  1  0
 10 13  1  0
M  END
$$$$

     RDKit          3D

 13 14  0  0  0  0  0  0  0  0999 V2000
  139.5348  150.8906  142.2305 C   0  0  0  0  0  0  0  0  0  0  0  0
  139.0139  150.3976  141.0574 C   0  0  0  0  0  0  0  0  0  0  0  0
  138.6965  150.9489  143.4028 C   0  0  0  0  0  0  0  0  0  0  0  0
  137.7130  149.9460  141.0427 C   0  0  0  0  0  0  0  0  0  0  0  0
  137.5183  150.9374  143.4785 C   0  0  0  0  0  0  0  0  0  0  0  0
  136.6733  151.1274  144.6812 C   0  0  0  0  0  0  0  0  0  0  0  0
  139.8472  150.3901  139.8637 C   0  0  0  0  0  0  0  0  0  0  0  0
  136.7200  150.2063  141.8846 C   0  0  0  0  0  0  0  0  0  0  0  0
  136.4930  150.6203  143.0434 C   0  0  0  0  0  0  0  0  0  0  0  0
  139.3609  150.4992  138.6511 C   0  0  0  0  0  0  0  0  0  0  0  0
  135.2816  150.8971  143.6550 C   0  0  0  0  0  0  0  0  0  0  0  0
  135.6506  151.3907  144.7590 C   0  0  0  0  0  0  0  0  0  0  0  0
  141.2322  150.2723  140.1199 C   0  0  0  0  0  0  0  0  0  0  0  0
  1  2  2  0
  1  3  1  0
  2  4  1  0
  3  5  2  0
  5  6  1  0
  2  7  1  0
  4  8  2  0
  5  9  1  0
  8  9  1  0
  7 10  1  0
  9 11  1  0
  6 12  2  0
 11 12  2  0
  7 13  2  0
M  END
$$$$

     RDKit          3D

 13 14  0  0  0  0  0  0  0  0999 V2000
  139.2621  151.0929  142.4047 C   0  0  0  0  0  0  0  0  0  0  0  0
  138.8616  152.1308  142.9039 C   0  0  0  0  0  0  0  0  0  0  0  0
  137.9118  151.7982  143.7822 C   0  0  0  0  0  0  0  0  0  0  0  0
  138.7623  149.7961  142.5205 C   0  0  0  0  0  0  0  0  0  0  0  0
  137.2977  152.8727  144.6398 C   0  0  0  0  0  0  0  0  0  0  0  0
  136.0129  152.6587  145.2579 C   0  0  0  0  0  0  0  0  0  0  0  0
  135.4442  151.4045  145.0716 C   0  0  0  0  0  0  0  0  0  0  0  0
  137.6583  149.7276  143.4422 C   0  0  0  0  0  0  0  0  0  0  0  0
  140.3310  151.1211  141.2583 C   0  0  0  0  0  0  0  0  0  0  0  0
  137.2584  150.7019  144.1553 C   0  0  0  0  0  0  0  0  0  0  0  0
  135.5232  153.7776  145.9590 C   0  0  0  0  0  0  0  0  0  0  0  0
  134.1832  151.3320  145.7722 C   0  0  0  0  0  0  0  0  0  0  0  0
  136.1708  150.3757  144.6941 N   0  0  0  0  0  0  0  0  0  0  0  0
  1  2  1  0
  2  3  2  0
  1  4  2  0
  3  5  1  0
  5  6  2  0
  6  7  1  0
  4  8  1  0
  1  9  1  0
  3 10  1  0
  8 10  2  0
  6 11  1  0
  7 12  1  0
  7 13  2  0
 10 13  1  0
M  END
$$$$

     RDKit          3D

 13 14  0  0  0  0  0  0  0  0999 V2000
  139.3427  149.9935  140.5880 C   0  0  0  0  0  0  0  0  0  0  0  0
  138.9528  149.9224  139.3656 C   0  0  0  0  0  0  0  0  0  0  0  0
  138.6122  150.1102  141.6416 C   0  0  0  0  0  0  0  0  0  0  0  0
  137.1910  149.8704  141.8331 C   0  0  0  0  0  0  0  0  0  0  0  0
  136.5134  149.7658  140.5812 C   0  0  0  0  0  0  0  0  0  0  0  0
  139.1788  150.4012  143.1353 C   0  0  0  0  0  0  0  0  0  0  0  0
  138.2249  150.9731  144.0852 C   0  0  0  0  0  0  0  0  0  0  0  0
  139.6664  149.8788  138.1669 C   0  0  0  0  0  0  0  0  0  0  0  0
  136.9452  150.8349  143.8835 C   0  0  0  0  0  0  0  0  0  0  0  0
  136.2904  150.3096  142.8062 C   0  0  0  0  0  0  0  0  0  0  0  0
  136.3679  151.4770  145.0553 C   0  0  0  0  0  0  0  0  0  0  0  0
  137.4519  149.7081  139.3536 C   0  0  0  0  0  0  0  0  0  0  0  0
  135.1667  152.0645  145.0529 C   0  0  0  0  0  0  0  0  0  0  0  0
  1  2  2  0
  1  3  1  0
  3  4  1  0
  4  5  2  0
  3  6  1  0
  6  7  2  0
  2  8  1  0
  7  9  1  0
  4 10  1  0
  9 10  1  0
  9 11  2  3
  2 12  1  0
  5 12  1  0
 11 13  1  0
M  END
$$$$

     RDKit          3D

 13 14  0  0  0  0  0  0  0  0999 V2000
  138.7090  151.1469  142.6269 C   0  0  0  0  0  0  0  0  0  0  0  0
  138.5260  151.9370  143.5114 C   0  0  0  0  0  0  0  0  0  0  0  0
  137.4749  151.6734  144.4638 C   0  0  0  0  0  0  0  0  0  0  0  0
  138.0103  149.8673  142.4738 C   0  0  0  0  0  0  0  0  0  0  0  0
  136.7212  150.4817  144.2964 C   0  0  0  0  0  0  0  0  0  0  0  0
  136.9974  149.5746  143.3594 C   0  0  0  0  0  0  0  0  0  0  0  0
  139.9266  151.4812  141.3818 S   0  0  0  0  0  0  0  0  0  0  0  0
  139.3329  150.2771  140.2692 C   0  0  0  0  0  0  0  0  0  0  0  0
  138.4011  149.2335  141.2158 C   0  0  0  0  0  0  0  0  0  0  0  0
  137.1462  152.6320  145.5013 O   0  0  0  0  0  0  0  0  0  0  0  0
  136.6182  153.8200  145.0744 C   0  0  0  0  0  0  0  0  0  0  0  0
  139.4651  150.0999  139.0635 C   0  0  0  0  0  0  0  0  0  0  0  0
  140.7330  150.2404  138.4711 C   0  0  0  0  0  0  0  0  0  0  0  0
  1  2  2  0
  2  3  1  0
  1  4  1  0
  3  5  2  0
  4  6  2  0
  5  6  1  0
  1  7  1  0
  7  8  1  0
  4  9  1  0
  8  9  1  0
  3 10  1  0
 10 11  1  0
  8 12  2  3
 12 13  1  0
M  END
$$$$

     RDKit          3D

 13 14  0  0  0  0  0  0  0  0999 V2000
  138.9705  151.3124  142.5681 C   0  0  0  0  0  0  0  0  0  0  0  0
  138.6057  152.0894  143.2653 C   0  0  0  0  0  0  0  0  0  0  0  0
  137.6600  151.8349  144.0467 C   0  0  0  0  0  0  0  0  0  0  0  0
  139.9939  151.3511  141.4314 C   0  0  0  0  0  0  0  0  0  0  0  0
  137.4795  150.6675  144.8972 C   0  0  0  0  0  0  0  0  0  0  0  0
  139.6568  150.7243  140.2644 C   0  0  0  0  0  0  0  0  0  0  0  0
  138.5004  150.0428  140.1974 C   0  0  0  0  0  0  0  0  0  0  0  0
  137.5686  149.8234  141.3807 C   0  0  0  0  0  0  0  0  0  0  0  0
  140.5888  150.6785  139.1831 C   0  0  0  0  0  0  0  0  0  0  0  0
  138.0055  150.3807  142.5466 C   0  0  0  0  0  0  0  0  0  0  0  0
  137.0383  150.4395  146.0865 C   0  0  0  0  0  0  0  0  0  0  0  0
  137.4693  149.8698  143.7612 N   0  0  0  0  0  0  0  0  0  0  0  0
  138.0065  149.6077  138.9468 C   0  0  0  0  0  0  0  0  0  0  0  0
  1  2  2  0
  2  3  1  0
  1  4  1  0
  3  5  2  0
  4  6  2  0
  6  7  1  0
  7  8  1  0
  6  9  1  0
  1 10  1  0
  8 10  2  0
  5 11  1  0
  5 12  1  0
 10 12  1  0
  7 13  1  0
M  END
$$$$

     RDKit          3D

 13 13  0  0  0  0  0  0  0  0999 V2000
  138.9705  151.3124  142.5681 C   0  0  0  0  0  0  0  0  0  0  0  0
  138.6057  152.0894  143.2653 C   0  0  0  0  0  0  0  0  0  0  0  0
  137.6600  151.8349  144.0467 C   0  0  0  0  0  0  0  0  0  0  0  0
  139.9939  151.3511  141.4314 C   0  0  0  0  0  0  0  0  0  0  0  0
  137.4795  150.6675  144.8972 C   0  0  0  0  0  0  0  0  0  0  0  0
  139.6568  150.7243  140.2644 C   0  0  0  0  0  0  0  0  0  0  0  0
  138.5004  150.0428  140.1974 C   0  0  0  0  0  0  0  0  0  0  0  0
  137.5686  149.8234  141.3807 C   0  0  0  0  0  0  0  0  0  0  0  0
  140.6055  150.7021  139.1138 C   0  0  0  0  0  0  0  0  0  0  0  0
  138.2177  149.5966  138.9131 C   0  0  0  0  0  0  0  0  0  0  0  0
  138.0504  150.1583  142.2716 C   0  0  0  0  0  0  0  0  0  0  0  0
  136.9573  149.0581  138.6699 C   0  0  0  0  0  0  0  0  0  0  0  0
  136.8005  150.6049  146.1048 C   0  0  0  0  0  0  0  0  0  0  0  0
  1  2  2  3
  2  3  1  0
  1  4  1  0
  3  5  2  3
  4  6  2  0
  6  7  1  0
  7  8  1  0
  6  9  1  0
  7 10  2  3
  1 11  1  0
  8 11  2  0
 10 12  1  0
  5 13  1  0
M  END
$$$$

     RDKit          3D

 13 14  0  0  0  0  0  0  0  0999 V2000
  139.5348  150.8906  142.2305 C   0  0  0  0  0  0  0  0  0  0  0  0
  139.0139  150.3976  141.0574 C   0  0  0  0  0  0  0  0  0  0  0  0
  138.6965  150.9489  143.4028 C   0  0  0  0  0  0  0  0  0  0  0  0
  137.7130  149.9460  141.0427 C   0  0  0  0  0  0  0  0  0  0  0  0
  137.5183  150.9374  143.4785 C   0  0  0  0  0  0  0  0  0  0  0  0
  136.6733  151.1274  144.6812 C   0  0  0  0  0  0  0  0  0  0  0  0
  139.8472  150.3901  139.8637 C   0  0  0  0  0  0  0  0  0  0  0  0
  136.7200  150.2063  141.8846 C   0  0  0  0  0  0  0  0  0  0  0  0
  136.4930  150.6203  143.0434 C   0  0  0  0  0  0  0  0  0  0  0  0
  139.3609  150.4992  138.6511 C   0  0  0  0  0  0  0  0  0  0  0  0
  141.2279  150.2661  140.1137 C   0  0  0  0  0  0  0  0  0  0  0  0
  135.2918  150.9016  143.6615 N   0  0  0  0  0  0  0  0  0  0  0  0
  135.4193  151.2027  144.8214 C   0  0  0  0  0  0  0  0  0  0  0  0
  1  2  2  0
  1  3  1  0
  2  4  1  0
  3  5  2  0
  5  6  1  0
  2  7  1  0
  4  8  2  0
  5  9  1  0
  8  9  1  0
  7 10  1  0
  7 11  2  0
  9 12  1  0
  6 13  1  0
 12 13  2  0
M  END
$$$$

     RDKit          3D

 13 14  0  0  0  0  0  0  0  0999 V2000
  139.5348  150.8906  142.2305 C   0  0  0  0  0  0  0  0  0  0  0  0
  139.0139  150.3976  141.0574 C   0  0  0  0  0  0  0  0  0  0  0  0
  138.6965  150.9489  143.4028 C   0  0  0  0  0  0  0  0  0  0  0  0
  137.7130  149.9460  141.0427 C   0  0  0  0  0  0  0  0  0  0  0  0
  137.5183  150.9374  143.4785 C   0  0  0  0  0  0  0  0  0  0  0  0
  136.6733  151.1274  144.6812 C   0  0  0  0  0  0  0  0  0  0  0  0
  139.8472  150.3901  139.8637 C   0  0  0  0  0  0  0  0  0  0  0  0
  136.7200  150.2063  141.8846 C   0  0  0  0  0  0  0  0  0  0  0  0
  136.4930  150.6203  143.0434 C   0  0  0  0  0  0  0  0  0  0  0  0
  135.8664  151.8203  144.7141 C   0  0  0  0  0  0  0  0  0  0  0  0
  135.2290  151.3391  143.4663 N   0  0  0  0  0  0  0  0  0  0  0  0
  141.2410  150.3220  140.0287 C   0  0  0  0  0  0  0  0  0  0  0  0
  139.3508  150.4379  138.6551 C   0  0  0  0  0  0  0  0  0  0  0  0
  1  2  2  0
  1  3  1  0
  2  4  1  0
  3  5  2  0
  5  6  1  0
  2  7  1  0
  4  8  2  0
  5  9  1  0
  8  9  1  0
  6 10  2  0
  9 11  2  0
 10 11  1  0
  7 12  1  0
  7 13  2  0
M  END
$$$$

     RDKit          3D

 13 14  0  0  0  0  0  0  0  0999 V2000
  138.7090  151.1469  142.6269 C   0  0  0  0  0  0  0  0  0  0  0  0
  138.5260  151.9370  143.5114 C   0  0  0  0  0  0  0  0  0  0  0  0
  137.3819  151.6579  144.3963 C   0  0  0  0  0  0  0  0  0  0  0  0
  139.7051  151.1184  141.6077 C   0  0  0  0  0  0  0  0  0  0  0  0
  139.4637  150.8262  140.3138 C   0  0  0  0  0  0  0  0  0  0  0  0
  138.1443  150.1615  140.2328 C   0  0  0  0  0  0  0  0  0  0  0  0
  137.8478  149.6487  138.8336 C   0  0  0  0  0  0  0  0  0  0  0  0
  137.2643  149.9895  141.3145 C   0  0  0  0  0  0  0  0  0  0  0  0
  135.9218  149.4173  140.9862 C   0  0  0  0  0  0  0  0  0  0  0  0
  137.6110  150.4170  142.5074 C   0  0  0  0  0  0  0  0  0  0  0  0
  137.0843  152.1599  145.6485 C   0  0  0  0  0  0  0  0  0  0  0  0
  135.8265  152.8752  145.7731 C   0  0  0  0  0  0  0  0  0  0  0  0
  136.7917  150.5354  143.6156 N   0  0  0  0  0  0  0  0  0  0  0  0
  1  2  1  0
  2  3  2  0
  1  4  1  0
  4  5  2  0
  5  6  1  0
  6  7  1  0
  6  8  2  0
  8  9  1  0
  1 10  2  0
  8 10  1  0
  3 11  1  0
 11 12  1  0
  3 13  1  0
 10 13  1  0
M  END
$$$$

     RDKit          3D

 13 14  0  0  0  0  0  0  0  0999 V2000
  140.3036  150.2148  139.4783 Cl  0  0  0  0  0  0  0  0  0  0  0  0
  138.6783  150.1860  140.5319 C   0  0  0  0  0  0  0  0  0  0  0  0
  137.6385  149.3831  140.0945 C   0  0  0  0  0  0  0  0  0  0  0  0
  138.7505  150.9487  141.6715 C   0  0  0  0  0  0  0  0  0  0  0  0
  136.5606  149.6034  140.7973 C   0  0  0  0  0  0  0  0  0  0  0  0
  136.3933  150.3970  141.9259 C   0  0  0  0  0  0  0  0  0  0  0  0
  135.1767  150.5746  142.7425 C   0  0  0  0  0  0  0  0  0  0  0  0
  135.6228  151.2741  143.9969 C   0  0  0  0  0  0  0  0  0  0  0  0
  134.8095  151.6415  145.0435 C   0  0  0  0  0  0  0  0  0  0  0  0
  136.9168  151.5381  144.2285 C   0  0  0  0  0  0  0  0  0  0  0  0
  137.4162  152.1353  145.3445 C   0  0  0  0  0  0  0  0  0  0  0  0
  137.5656  151.0493  142.4452 C   0  0  0  0  0  0  0  0  0  0  0  0
  137.8320  151.5651  143.5705 C   0  0  0  0  0  0  0  0  0  0  0  0
  1  2  1  0
  2  3  2  0
  2  4  1  0
  3  5  1  0
  5  6  2  0
  6  7  1  0
  7  8  2  0
  8  9  1  0
  8 10  1  0
 10 11  1  0
  4 12  2  0
  6 12  1  0
 10 13  2  0
 12 13  1  0
M  END
$$$$

     RDKit          3D

 13 14  0  0  0  0  0  0  0  0999 V2000
  138.7090  151.1469  142.6269 C   0  0  0  0  0  0  0  0  0  0  0  0
  138.5260  151.9370  143.5114 C   0  0  0  0  0  0  0  0  0  0  0  0
  137.3819  151.6579  144.3963 C   0  0  0  0  0  0  0  0  0  0  0  0
  139.7051  151.1184  141.6077 C   0  0  0  0  0  0  0  0  0  0  0  0
  136.7557  152.5772  145.3074 C   0  0  0  0  0  0  0  0  0  0  0  0
  139.6288  150.4580  140.3315 C   0  0  0  0  0  0  0  0  0  0  0  0
  138.4571  149.6004  140.4454 C   0  0  0  0  0  0  0  0  0  0  0  0
  137.8336  150.0445  142.3293 C   0  0  0  0  0  0  0  0  0  0  0  0
  140.4666  150.5862  139.2787 C   0  0  0  0  0  0  0  0  0  0  0  0
  136.9038  150.0724  143.5173 C   0  0  0  0  0  0  0  0  0  0  0  0
  136.6192  150.5803  144.4277 C   0  0  0  0  0  0  0  0  0  0  0  0
  137.6524  149.3712  141.3225 N   0  0  0  0  0  0  0  0  0  0  0  0
  135.6240  152.8653  145.9380 C   0  0  0  0  0  0  0  0  0  0  0  0
  1  2  1  0
  2  3  2  0
  1  4  1  0
  3  5  1  0
  4  6  2  0
  6  7  1  0
  1  8  2  0
  6  9  1  0
  8 10  1  0
  3 11  1  0
 10 11  2  0
  7 12  2  0
  8 12  1  0
  5 13  2  0
M  END
$$$$

     RDKit          3D

 13 14  0  0  0  0  0  0  0  0999 V2000
  140.3036  150.2148  139.4783 Cl  0  0  0  0  0  0  0  0  0  0  0  0
  138.6783  150.1860  140.5319 C   0  0  0  0  0  0  0  0  0  0  0  0
  137.6385  149.3831  140.0945 C   0  0  0  0  0  0  0  0  0  0  0  0
  138.7505  150.9487  141.6715 C   0  0  0  0  0  0  0  0  0  0  0  0
  136.5606  149.6034  140.7973 C   0  0  0  0  0  0  0  0  0  0  0  0
  135.2960  149.0163  140.1852 C   0  0  0  0  0  0  0  0  0  0  0  0
  136.5422  150.4642  141.8563 C   0  0  0  0  0  0  0  0  0  0  0  0
  135.3353  150.6737  142.7430 C   0  0  0  0  0  0  0  0  0  0  0  0
  135.7908  151.4836  143.9525 C   0  0  0  0  0  0  0  0  0  0  0  0
  135.1610  151.6622  145.0840 C   0  0  0  0  0  0  0  0  0  0  0  0
  135.5551  152.7483  146.0361 C   0  0  0  0  0  0  0  0  0  0  0  0
  137.6881  151.1138  142.3886 C   0  0  0  0  0  0  0  0  0  0  0  0
  137.1180  152.0083  143.8128 C   0  0  0  0  0  0  0  0  0  0  0  0
  1  2  1  0
  2  3  2  0
  2  4  1  0
  3  5  1  0
  5  6  1  0
  5  7  2  0
  7  8  1  0
  8  9  1  0
  9 10  1  0
 10 11  1  0
  4 12  2  0
  7 12  1  0
  9 13  2  0
 12 13  1  0
M  END
$$$$

     RDKit          3D

 13 14  0  0  0  0  0  0  0  0999 V2000
  139.5348  150.8906  142.2305 C   0  0  0  0  0  0  0  0  0  0  0  0
  139.0139  150.3976  141.0574 C   0  0  0  0  0  0  0  0  0  0  0  0
  138.6965  150.9489  143.4028 C   0  0  0  0  0  0  0  0  0  0  0  0
  137.7130  149.9460  141.0427 C   0  0  0  0  0  0  0  0  0  0  0  0
  137.5183  150.9374  143.4785 C   0  0  0  0  0  0  0  0  0  0  0  0
  136.6733  151.1274  144.6812 C   0  0  0  0  0  0  0  0  0  0  0  0
  139.8472  150.3901  139.8637 C   0  0  0  0  0  0  0  0  0  0  0  0
  136.7200  150.2063  141.8846 C   0  0  0  0  0  0  0  0  0  0  0  0
  136.4930  150.6203  143.0434 C   0  0  0  0  0  0  0  0  0  0  0  0
  139.3609  150.4992  138.6511 C   0  0  0  0  0  0  0  0  0  0  0  0
  141.0593  150.6025  140.2414 O   0  0  0  0  0  0  0  0  0  0  0  0
  135.2669  150.8988  143.6510 N   0  0  0  0  0  0  0  0  0  0  0  0
  135.4055  151.1996  144.8139 C   0  0  0  0  0  0  0  0  0  0  0  0
  1  2  2  0
  1  3  1  0
  2  4  1  0
  3  5  2  0
  5  6  1  0
  2  7  1  0
  4  8  2  0
  5  9  1  0
  8  9  1  0
  7 10  1  0
  7 11  2  0
  9 12  1  0
  6 13  1  0
 12 13  2  0
M  END
$$$$

     RDKit          3D

 13 14  0  0  0  0  0  0  0  0999 V2000
  139.3427  149.9935  140.5880 C   0  0  0  0  0  0  0  0  0  0  0  0
  138.9528  149.9224  139.3656 C   0  0  0  0  0  0  0  0  0  0  0  0
  138.6122  150.1102  141.6416 C   0  0  0  0  0  0  0  0  0  0  0  0
  137.1910  149.8704  141.8331 C   0  0  0  0  0  0  0  0  0  0  0  0
  136.5134  149.7658  140.5812 C   0  0  0  0  0  0  0  0  0  0  0  0
  139.1788  150.4012  143.1353 C   0  0  0  0  0  0  0  0  0  0  0  0
  138.2249  150.9731  144.0852 C   0  0  0  0  0  0  0  0  0  0  0  0
  139.6664  149.8788  138.1669 C   0  0  0  0  0  0  0  0  0  0  0  0
  136.9452  150.8349  143.8835 C   0  0  0  0  0  0  0  0  0  0  0  0
  136.1460  151.2524  145.1339 C   0  0  0  0  0  0  0  0  0  0  0  0
  136.9869  149.6852  139.2232 C   0  0  0  0  0  0  0  0  0  0  0  0
  135.1119  152.2427  144.9546 C   0  0  0  0  0  0  0  0  0  0  0  0
  136.3298  150.2435  142.7793 N   0  0  0  0  0  0  0  0  0  0  0  0
  1  2  2  0
  1  3  1  0
  3  4  1  0
  4  5  2  0
  3  6  1  0
  6  7  2  0
  2  8  1  0
  7  9  1  0
  9 10  1  0
  2 11  1  0
  5 11  1  0
 10 12  1  0
  4 13  1  0
  9 13  2  0
M  END
$$$$

     RDKit          3D

 13 14  0  0  0  0  0  0  0  0999 V2000
  138.9705  151.3124  142.5681 C   0  0  0  0  0  0  0  0  0  0  0  0
  138.6057  152.0894  143.2653 C   0  0  0  0  0  0  0  0  0  0  0  0
  137.5209  151.8314  144.2019 C   0  0  0  0  0  0  0  0  0  0  0  0
  136.5811  152.7823  144.6505 C   0  0  0  0  0  0  0  0  0  0  0  0
  139.7956  151.3595  141.3741 C   0  0  0  0  0  0  0  0  0  0  0  0
  135.9804  152.8193  145.6528 C   0  0  0  0  0  0  0  0  0  0  0  0
  139.5360  150.6466  140.2953 C   0  0  0  0  0  0  0  0  0  0  0  0
  136.0633  151.5366  146.3570 C   0  0  0  0  0  0  0  0  0  0  0  0
  138.3949  149.8648  140.3621 C   0  0  0  0  0  0  0  0  0  0  0  0
  138.2862  150.0671  142.3940 C   0  0  0  0  0  0  0  0  0  0  0  0
  137.3447  150.5450  144.4815 C   0  0  0  0  0  0  0  0  0  0  0  0
  137.8701  149.4608  141.3629 C   0  0  0  0  0  0  0  0  0  0  0  0
  136.4770  150.3418  145.8414 C   0  0  0  0  0  0  0  0  0  0  0  0
  1  2  2  3
  2  3  1  0
  3  4  1  0
  1  5  1  0
  4  6  2  0
  5  7  2  0
  6  8  1  0
  7  9  1  0
  1 10  1  0
  3 11  2  0
  9 12  1  0
 10 12  1  0
  8 13  2  0
 11 13  1  0
M  END
$$$$

     RDKit          3D

 13 14  0  0  0  0  0  0  0  0999 V2000
  140.3036  150.2148  139.4783 Cl  0  0  0  0  0  0  0  0  0  0  0  0
  138.6783  150.1860  140.5319 C   0  0  0  0  0  0  0  0  0  0  0  0
  137.6385  149.3831  140.0945 C   0  0  0  0  0  0  0  0  0  0  0  0
  138.8668  150.7183  141.4516 C   0  0  0  0  0  0  0  0  0  0  0  0
  138.3194  150.9395  142.2987 C   0  0  0  0  0  0  0  0  0  0  0  0
  136.9007  150.1342  142.2766 C   0  0  0  0  0  0  0  0  0  0  0  0
  136.0346  150.4104  143.3393 C   0  0  0  0  0  0  0  0  0  0  0  0
  137.4083  148.7821  138.9116 C   0  0  0  0  0  0  0  0  0  0  0  0
  136.4724  151.2971  144.2937 C   0  0  0  0  0  0  0  0  0  0  0  0
  136.5427  149.5797  141.0185 C   0  0  0  0  0  0  0  0  0  0  0  0
  136.5121  151.0865  145.5702 C   0  0  0  0  0  0  0  0  0  0  0  0
  138.3620  151.5932  143.7016 C   0  0  0  0  0  0  0  0  0  0  0  0
  137.3390  152.0346  144.2101 C   0  0  0  0  0  0  0  0  0  0  0  0
  1  2  1  0
  2  3  2  0
  2  4  1  0
  4  5  2  0
  5  6  1  0
  6  7  1  0
  3  8  1  0
  7  9  1  0
  3 10  1  0
  6 10  2  0
  9 11  1  0
  5 12  1  0
  9 13  1  0
 12 13  1  0
M  END
$$$$

     RDKit          3D

 13 14  0  0  0  0  0  0  0  0999 V2000
  139.5348  150.8906  142.2305 C   0  0  0  0  0  0  0  0  0  0  0  0
  139.0139  150.3976  141.0574 C   0  0  0  0  0  0  0  0  0  0  0  0
  138.6965  150.9489  143.4028 C   0  0  0  0  0  0  0  0  0  0  0  0
  137.7130  149.9460  141.0427 C   0  0  0  0  0  0  0  0  0  0  0  0
  137.5183  150.9374  143.4785 C   0  0  0  0  0  0  0  0  0  0  0  0
  136.6733  151.1274  144.6812 C   0  0  0  0  0  0  0  0  0  0  0  0
  139.8472  150.3901  139.8637 C   0  0  0  0  0  0  0  0  0  0  0  0
  136.7200  150.2063  141.8846 C   0  0  0  0  0  0  0  0  0  0  0  0
  136.4930  150.6203  143.0434 C   0  0  0  0  0  0  0  0  0  0  0  0
  139.3609  150.4992  138.6511 C   0  0  0  0  0  0  0  0  0  0  0  0
  141.0593  150.6025  140.2414 O   0  0  0  0  0  0  0  0  0  0  0  0
  135.4254  151.4261  144.6122 C   0  0  0  0  0  0  0  0  0  0  0  0
  135.1357  150.8839  143.4066 C   0  0  0  0  0  0  0  0  0  0  0  0
  1  2  2  0
  1  3  1  0
  2  4  1  0
  3  5  2  0
  5  6  1  0
  2  7  1  0
  4  8  2  0
  5  9  1  0
  8  9  1  0
  7 10  1  0
  7 11  2  0
  6 12  1  0
  9 13  2  0
 12 13  1  0
M  END
$$$$

     RDKit          3D

 13 14  0  0  0  0  0  0  0  0999 V2000
  139.5348  150.8906  142.2305 C   0  0  0  0  0  0  0  0  0  0  0  0
  139.0139  150.3976  141.0574 C   0  0  0  0  0  0  0  0  0  0  0  0
  138.6965  150.9489  143.4028 C   0  0  0  0  0  0  0  0  0  0  0  0
  137.7130  149.9460  141.0427 C   0  0  0  0  0  0  0  0  0  0  0  0
  137.5183  150.9374  143.4785 C   0  0  0  0  0  0  0  0  0  0  0  0
  136.6733  151.1274  144.6812 C   0  0  0  0  0  0  0  0  0  0  0  0
  139.8472  150.3901  139.8637 C   0  0  0  0  0  0  0  0  0  0  0  0
  136.7200  150.2063  141.8846 C   0  0  0  0  0  0  0  0  0  0  0  0
  136.4930  150.6203  143.0434 C   0  0  0  0  0  0  0  0  0  0  0  0
  139.3609  150.4992  138.6511 C   0  0  0  0  0  0  0  0  0  0  0  0
  135.2497  150.8986  143.6322 C   0  0  0  0  0  0  0  0  0  0  0  0
  135.6315  151.3374  144.8410 C   0  0  0  0  0  0  0  0  0  0  0  0
  141.0657  150.6037  140.2495 O   0  0  0  0  0  0  0  0  0  0  0  0
  1  2  2  0
  1  3  1  0
  2  4  1  0
  3  5  2  0
  5  6  1  0
  2  7  1  0
  4  8  2  0
  5  9  1  0
  8  9  1  0
  7 10  1  0
  9 11  2  0
  6 12  2  0
 11 12  1  0
  7 13  2  0
M  END
$$$$

     RDKit          3D

 13 14  0  0  0  0  0  0  0  0999 V2000
  139.0004  149.7631  140.3649 C   0  0  0  0  0  0  0  0  0  0  0  0
  138.7142  149.5451  139.1249 C   0  0  0  0  0  0  0  0  0  0  0  0
  138.1856  150.1072  141.2839 C   0  0  0  0  0  0  0  0  0  0  0  0
  137.3213  149.5926  138.6821 C   0  0  0  0  0  0  0  0  0  0  0  0
  136.3776  149.8122  139.7323 C   0  0  0  0  0  0  0  0  0  0  0  0
  138.6498  150.4524  142.6761 C   0  0  0  0  0  0  0  0  0  0  0  0
  137.8095  150.9703  143.6446 C   0  0  0  0  0  0  0  0  0  0  0  0
  136.5355  151.0899  143.2204 C   0  0  0  0  0  0  0  0  0  0  0  0
  135.6032  151.5335  144.2586 C   0  0  0  0  0  0  0  0  0  0  0  0
  136.7210  150.1954  141.0308 C   0  0  0  0  0  0  0  0  0  0  0  0
  135.1480  151.2088  145.2320 C   0  0  0  0  0  0  0  0  0  0  0  0
  136.0911  150.3562  146.0614 C   0  0  0  0  0  0  0  0  0  0  0  0
  136.2113  150.6159  142.0361 N   0  0  0  0  0  0  0  0  0  0  0  0
  1  2  2  0
  1  3  1  0
  2  4  1  0
  4  5  2  0
  3  6  1  0
  6  7  2  0
  7  8  1  0
  8  9  1  0
  3 10  2  0
  5 10  1  0
  9 11  2  3
 11 12  1  0
  8 13  2  0
 10 13  1  0
M  END
$$$$

     RDKit          3D

 13 14  0  0  0  0  0  0  0  0999 V2000
  140.3036  150.2148  139.4783 Cl  0  0  0  0  0  0  0  0  0  0  0  0
  138.6783  150.1860  140.5319 C   0  0  0  0  0  0  0  0  0  0  0  0
  137.6385  149.3831  140.0945 C   0  0  0  0  0  0  0  0  0  0  0  0
  138.8668  150.7183  141.4516 C   0  0  0  0  0  0  0  0  0  0  0  0
  138.3194  150.9395  142.2987 C   0  0  0  0  0  0  0  0  0  0  0  0
  136.9007  150.1342  142.2766 C   0  0  0  0  0  0  0  0  0  0  0  0
  136.0346  150.4104  143.3393 C   0  0  0  0  0  0  0  0  0  0  0  0
  137.4083  148.7821  138.9116 C   0  0  0  0  0  0  0  0  0  0  0  0
  136.4724  151.2971  144.2937 C   0  0  0  0  0  0  0  0  0  0  0  0
  136.0775  151.4989  145.5085 C   0  0  0  0  0  0  0  0  0  0  0  0
  136.5856  149.5922  141.1447 C   0  0  0  0  0  0  0  0  0  0  0  0
  135.1492  152.5971  145.8475 C   0  0  0  0  0  0  0  0  0  0  0  0
  138.3383  151.6186  143.6827 C   0  0  0  0  0  0  0  0  0  0  0  0
  1  2  1  0
  2  3  2  0
  2  4  1  0
  4  5  2  0
  5  6  1  0
  6  7  1  0
  3  8  1  0
  7  9  1  0
  9 10  1  0
  3 11  1  0
  6 11  2  0
 10 12  1  0
  5 13  1  0
  9 13  1  0
M  END
$$$$

     RDKit          3D

 13 14  0  0  0  0  0  0  0  0999 V2000
  139.5348  150.8906  142.2305 C   0  0  0  0  0  0  0  0  0  0  0  0
  139.0139  150.3976  141.0574 C   0  0  0  0  0  0  0  0  0  0  0  0
  138.6965  150.9489  143.4028 C   0  0  0  0  0  0  0  0  0  0  0  0
  137.7130  149.9460  141.0427 C   0  0  0  0  0  0  0  0  0  0  0  0
  137.5183  150.9374  143.4785 C   0  0  0  0  0  0  0  0  0  0  0  0
  136.6733  151.1274  144.6812 C   0  0  0  0  0  0  0  0  0  0  0  0
  139.8472  150.3901  139.8637 C   0  0  0  0  0  0  0  0  0  0  0  0
  136.7200  150.2063  141.8846 C   0  0  0  0  0  0  0  0  0  0  0  0
  136.4930  150.6203  143.0434 C   0  0  0  0  0  0  0  0  0  0  0  0
  139.3609  150.4992  138.6511 C   0  0  0  0  0  0  0  0  0  0  0  0
  141.2279  150.2661  140.1137 C   0  0  0  0  0  0  0  0  0  0  0  0
  135.4319  151.4371  144.6105 C   0  0  0  0  0  0  0  0  0  0  0  0
  135.1501  150.8857  143.4034 C   0  0  0  0  0  0  0  0  0  0  0  0
  1  2  2  0
  1  3  1  0
  2  4  1  0
  3  5  2  0
  5  6  1  0
  2  7  1  0
  4  8  2  0
  5  9  1  0
  8  9  1  0
  7 10  1  0
  7 11  2  0
  6 12  1  0
  9 13  1  0
 12 13  1  0
M  END
$$$$

     RDKit          3D

 13 14  0  0  0  0  0  0  0  0999 V2000
  140.3036  150.2148  139.4783 Cl  0  0  0  0  0  0  0  0  0  0  0  0
  138.6783  150.1860  140.5319 C   0  0  0  0  0  0  0  0  0  0  0  0
  137.6385  149.3831  140.0945 C   0  0  0  0  0  0  0  0  0  0  0  0
  138.8668  150.7183  141.4516 C   0  0  0  0  0  0  0  0  0  0  0  0
  138.3194  150.9395  142.2987 C   0  0  0  0  0  0  0  0  0  0  0  0
  136.9007  150.1342  142.2766 C   0  0  0  0  0  0  0  0  0  0  0  0
  136.0346  150.4104  143.3393 C   0  0  0  0  0  0  0  0  0  0  0  0
  137.4083  148.7821  138.9116 C   0  0  0  0  0  0  0  0  0  0  0  0
  136.4724  151.2971  144.2937 C   0  0  0  0  0  0  0  0  0  0  0  0
  137.7160  152.0312  144.0516 C   0  0  0  0  0  0  0  0  0  0  0  0
  136.6135  149.5774  141.1671 C   0  0  0  0  0  0  0  0  0  0  0  0
  138.7209  151.6449  143.4574 C   0  0  0  0  0  0  0  0  0  0  0  0
  135.8004  152.0293  145.2189 O   0  0  0  0  0  0  0  0  0  0  0  0
  1  2  1  0
  2  3  2  0
  2  4  1  0
  4  5  2  0
  5  6  1  0
  6  7  1  0
  3  8  1  0
  7  9  1  0
  9 10  1  0
  3 11  1  0
  6 11  2  0
  5 12  1  0
 10 12  2  0
  9 13  1  0
M  END
$$$$

     RDKit          3D

 13 14  0  0  0  0  0  0  0  0999 V2000
  139.5348  150.8906  142.2305 C   0  0  0  0  0  0  0  0  0  0  0  0
  139.0139  150.3976  141.0574 C   0  0  0  0  0  0  0  0  0  0  0  0
  138.6965  150.9489  143.4028 C   0  0  0  0  0  0  0  0  0  0  0  0
  137.7130  149.9460  141.0427 C   0  0  0  0  0  0  0  0  0  0  0  0
  137.5183  150.9374  143.4785 C   0  0  0  0  0  0  0  0  0  0  0  0
  136.6733  151.1274  144.6812 C   0  0  0  0  0  0  0  0  0  0  0  0
  139.8472  150.3901  139.8637 C   0  0  0  0  0  0  0  0  0  0  0  0
  136.7200  150.2063  141.8846 C   0  0  0  0  0  0  0  0  0  0  0  0
  136.4930  150.6203  143.0434 C   0  0  0  0  0  0  0  0  0  0  0  0
  135.8664  151.8203  144.7141 C   0  0  0  0  0  0  0  0  0  0  0  0
  135.0712  152.5387  145.8229 C   0  0  0  0  0  0  0  0  0  0  0  0
  139.3709  150.4965  138.6493 C   0  0  0  0  0  0  0  0  0  0  0  0
  135.2292  151.3278  143.4663 C   0  0  0  0  0  0  0  0  0  0  0  0
  1  2  2  0
  1  3  1  0
  2  4  1  0
  3  5  2  0
  5  6  1  0
  2  7  1  0
  4  8  2  0
  5  9  1  0
  8  9  1  0
  6 10  2  0
 10 11  1  0
  7 12  2  0
  9 13  2  0
 10 13  1  0
M  END
$$$$

     RDKit          3D

 13 14  0  0  0  0  0  0  0  0999 V2000
  138.9705  151.3124  142.5681 C   0  0  0  0  0  0  0  0  0  0  0  0
  138.6057  152.0894  143.2653 C   0  0  0  0  0  0  0  0  0  0  0  0
  137.6600  151.8349  144.0467 C   0  0  0  0  0  0  0  0  0  0  0  0
  139.9939  151.3511  141.4314 C   0  0  0  0  0  0  0  0  0  0  0  0
  137.4795  150.6675  144.8972 C   0  0  0  0  0  0  0  0  0  0  0  0
  139.6568  150.7243  140.2644 C   0  0  0  0  0  0  0  0  0  0  0  0
  138.5004  150.0428  140.1974 C   0  0  0  0  0  0  0  0  0  0  0  0
  137.5686  149.8234  141.3807 C   0  0  0  0  0  0  0  0  0  0  0  0
  136.3093  149.2802  141.1766 C   0  0  0  0  0  0  0  0  0  0  0  0
  138.1078  150.4070  142.5636 C   0  0  0  0  0  0  0  0  0  0  0  0
  137.4433  149.7661  143.6829 C   0  0  0  0  0  0  0  0  0  0  0  0
  138.0802  149.4454  139.0083 C   0  0  0  0  0  0  0  0  0  0  0  0
  139.0275  149.4881  137.9704 C   0  0  0  0  0  0  0  0  0  0  0  0
  1  2  2  0
  2  3  1  0
  1  4  1  0
  3  5  2  0
  4  6  2  0
  6  7  1  0
  7  8  1  0
  8  9  2  0
  1 10  1  0
  8 10  1  0
  5 11  1  0
 10 11  2  0
  7 12  2  3
 12 13  1  0
M  END
$$$$

     RDKit          3D

 13 14  0  0  0  0  0  0  0  0999 V2000
  138.7090  151.1469  142.6269 C   0  0  0  0  0  0  0  0  0  0  0  0
  138.5260  151.9370  143.5114 C   0  0  0  0  0  0  0  0  0  0  0  0
  137.3819  151.6579  144.3963 C   0  0  0  0  0  0  0  0  0  0  0  0
  139.7051  151.1184  141.6077 C   0  0  0  0  0  0  0  0  0  0  0  0
  136.7072  150.4347  144.0265 C   0  0  0  0  0  0  0  0  0  0  0  0
  139.4496  150.8400  140.3164 C   0  0  0  0  0  0  0  0  0  0  0  0
  138.1688  150.1903  140.1998 C   0  0  0  0  0  0  0  0  0  0  0  0
  137.8593  149.7371  138.7840 C   0  0  0  0  0  0  0  0  0  0  0  0
  137.7643  150.0553  142.2577 C   0  0  0  0  0  0  0  0  0  0  0  0
  137.3522  149.7392  141.1906 C   0  0  0  0  0  0  0  0  0  0  0  0
  135.8001  150.1296  145.2186 C   0  0  0  0  0  0  0  0  0  0  0  0
  137.2775  149.5369  143.2073 N   0  0  0  0  0  0  0  0  0  0  0  0
  134.7303  151.1775  145.3215 C   0  0  0  0  0  0  0  0  0  0  0  0
  1  2  1  0
  2  3  2  0
  1  4  1  0
  3  5  1  0
  4  6  2  0
  6  7  1  0
  7  8  1  0
  1  9  2  0
  7 10  2  0
  9 10  1  0
  5 11  1  0
  5 12  1  0
  9 12  1  0
 11 13  1  0
M  END
$$$$

     RDKit          3D

 13 14  0  0  0  0  0  0  0  0999 V2000
  139.3427  149.9935  140.5880 C   0  0  0  0  0  0  0  0  0  0  0  0
  138.9528  149.9224  139.3656 C   0  0  0  0  0  0  0  0  0  0  0  0
  138.6122  150.1102  141.6416 C   0  0  0  0  0  0  0  0  0  0  0  0
  137.1910  149.8704  141.8331 C   0  0  0  0  0  0  0  0  0  0  0  0
  136.5134  149.7658  140.5812 C   0  0  0  0  0  0  0  0  0  0  0  0
  139.1788  150.4012  143.1353 C   0  0  0  0  0  0  0  0  0  0  0  0
  138.2249  150.9731  144.0852 C   0  0  0  0  0  0  0  0  0  0  0  0
  139.6664  149.8788  138.1669 C   0  0  0  0  0  0  0  0  0  0  0  0
  136.9452  150.8349  143.8835 C   0  0  0  0  0  0  0  0  0  0  0  0
  136.2904  150.3096  142.8062 C   0  0  0  0  0  0  0  0  0  0  0  0
  136.1508  151.3814  145.0221 C   0  0  0  0  0  0  0  0  0  0  0  0
  137.4173  149.7155  139.3857 C   0  0  0  0  0  0  0  0  0  0  0  0
  135.2766  152.5140  144.8203 C   0  0  0  0  0  0  0  0  0  0  0  0
  1  2  2  0
  1  3  1  0
  3  4  1  0
  4  5  2  0
  3  6  1  0
  6  7  2  0
  2  8  1  0
  7  9  1  0
  4 10  1  0
  9 10  1  0
  9 11  1  0
  2 12  1  0
  5 12  1  0
 11 13  1  0
M  END
$$$$

     RDKit          3D

 13 14  0  0  0  0  0  0  0  0999 V2000
  138.9705  151.3124  142.5681 C   0  0  0  0  0  0  0  0  0  0  0  0
  138.6057  152.0894  143.2653 C   0  0  0  0  0  0  0  0  0  0  0  0
  137.5209  151.8314  144.2019 C   0  0  0  0  0  0  0  0  0  0  0  0
  136.5811  152.7823  144.6505 C   0  0  0  0  0  0  0  0  0  0  0  0
  139.7956  151.3595  141.3741 C   0  0  0  0  0  0  0  0  0  0  0  0
  135.9804  152.8193  145.6528 C   0  0  0  0  0  0  0  0  0  0  0  0
  139.5360  150.6466  140.2953 C   0  0  0  0  0  0  0  0  0  0  0  0
  136.0633  151.5366  146.3570 C   0  0  0  0  0  0  0  0  0  0  0  0
  138.3949  149.8648  140.3621 C   0  0  0  0  0  0  0  0  0  0  0  0
  138.2862  150.0671  142.3940 C   0  0  0  0  0  0  0  0  0  0  0  0
  137.3447  150.5450  144.4815 C   0  0  0  0  0  0  0  0  0  0  0  0
  137.8509  149.3947  141.4651 C   0  0  0  0  0  0  0  0  0  0  0  0
  136.5513  150.4369  145.7373 C   0  0  0  0  0  0  0  0  0  0  0  0
  1  2  2  3
  2  3  1  0
  3  4  1  0
  1  5  1  0
  4  6  2  0
  5  7  2  0
  6  8  1  0
  7  9  1  0
  1 10  1  0
  3 11  2  0
  9 12  2  0
 10 12  1  0
  8 13  2  0
 11 13  1  0
M  END
$$$$

     RDKit          3D

 13 14  0  0  0  0  0  0  0  0999 V2000
  139.0004  149.7631  140.3649 C   0  0  0  0  0  0  0  0  0  0  0  0
  138.7142  149.5451  139.1249 C   0  0  0  0  0  0  0  0  0  0  0  0
  138.1856  150.1072  141.2839 C   0  0  0  0  0  0  0  0  0  0  0  0
  137.3213  149.5926  138.6821 C   0  0  0  0  0  0  0  0  0  0  0  0
  136.3776  149.8122  139.7323 C   0  0  0  0  0  0  0  0  0  0  0  0
  138.6498  150.4524  142.6761 C   0  0  0  0  0  0  0  0  0  0  0  0
  137.8095  150.9703  143.6446 C   0  0  0  0  0  0  0  0  0  0  0  0
  134.9539  149.9121  139.4569 O   0  0  0  0  0  0  0  0  0  0  0  0
  136.7217  150.1248  141.0322 C   0  0  0  0  0  0  0  0  0  0  0  0
  136.5074  150.9642  143.6300 C   0  0  0  0  0  0  0  0  0  0  0  0
  135.8263  150.6180  142.3094 C   0  0  0  0  0  0  0  0  0  0  0  0
  135.9622  151.7081  144.6626 C   0  0  0  0  0  0  0  0  0  0  0  0
  136.2541  153.0090  144.8731 C   0  0  0  0  0  0  0  0  0  0  0  0
  1  2  2  0
  1  3  1  0
  2  4  1  0
  4  5  2  0
  3  6  1  0
  6  7  2  0
  5  8  1  0
  3  9  2  0
  5  9  1  0
  7 10  1  0
  9 11  1  0
 10 11  1  0
 10 12  1  0
 12 13  1  0
M  END
$$$$

     RDKit          3D

 13 14  0  0  0  0  0  0  0  0999 V2000
  140.3036  150.2148  139.4783 Cl  0  0  0  0  0  0  0  0  0  0  0  0
  138.6783  150.1860  140.5319 C   0  0  0  0  0  0  0  0  0  0  0  0
  137.6385  149.3831  140.0945 C   0  0  0  0  0  0  0  0  0  0  0  0
  138.8668  150.7183  141.4516 C   0  0  0  0  0  0  0  0  0  0  0  0
  138.3194  150.9395  142.2987 C   0  0  0  0  0  0  0  0  0  0  0  0
  136.9007  150.1342  142.2766 C   0  0  0  0  0  0  0  0  0  0  0  0
  136.0346  150.4104  143.3393 C   0  0  0  0  0  0  0  0  0  0  0  0
  137.4083  148.7821  138.9116 C   0  0  0  0  0  0  0  0  0  0  0  0
  136.5594  149.5457  141.0880 C   0  0  0  0  0  0  0  0  0  0  0  0
  138.4804  151.6715  143.7636 C   0  0  0  0  0  0  0  0  0  0  0  0
  137.3661  151.8338  144.4131 C   0  0  0  0  0  0  0  0  0  0  0  0
  136.2429  151.1632  144.3879 C   0  0  0  0  0  0  0  0  0  0  0  0
  137.3719  152.9882  145.3538 C   0  0  0  0  0  0  0  0  0  0  0  0
  1  2  1  0
  2  3  2  0
  2  4  1  0
  4  5  2  0
  5  6  1  0
  6  7  1  0
  3  8  1  0
  3  9  1  0
  6  9  2  0
  5 10  1  0
 10 11  1  0
  7 12  2  0
 11 12  1  0
 11 13  2  0
M  END
$$$$

     RDKit          3D

 13 14  0  0  0  0  0  0  0  0999 V2000
  138.7090  151.1469  142.6269 C   0  0  0  0  0  0  0  0  0  0  0  0
  138.5260  151.9370  143.5114 C   0  0  0  0  0  0  0  0  0  0  0  0
  137.3819  151.6579  144.3963 C   0  0  0  0  0  0  0  0  0  0  0  0
  139.7051  151.1184  141.6077 C   0  0  0  0  0  0  0  0  0  0  0  0
  136.7557  152.5772  145.3074 C   0  0  0  0  0  0  0  0  0  0  0  0
  139.6288  150.4580  140.3315 C   0  0  0  0  0  0  0  0  0  0  0  0
  138.4571  149.6004  140.4454 C   0  0  0  0  0  0  0  0  0  0  0  0
  135.4568  152.3937  145.7654 C   0  0  0  0  0  0  0  0  0  0  0  0
  137.5807  149.8923  141.3497 C   0  0  0  0  0  0  0  0  0  0  0  0
  136.1161  149.2357  141.0244 C   0  0  0  0  0  0  0  0  0  0  0  0
  137.5797  150.4411  142.2334 C   0  0  0  0  0  0  0  0  0  0  0  0
  136.6622  150.6430  144.5260 C   0  0  0  0  0  0  0  0  0  0  0  0
  135.5691  150.6653  145.2655 C   0  0  0  0  0  0  0  0  0  0  0  0
  1  2  1  0
  2  3  2  3
  1  4  1  0
  3  5  1  0
  4  6  2  0
  6  7  1  0
  5  8  1  0
  7  9  2  0
  9 10  1  0
  1 11  2  0
  9 11  1  0
  3 12  1  0
  8 13  1  0
 12 13  1  0
M  END
$$$$

     RDKit          3D

 13 14  0  0  0  0  0  0  0  0999 V2000
  138.7090  151.1469  142.6269 C   0  0  0  0  0  0  0  0  0  0  0  0
  138.5260  151.9370  143.5114 C   0  0  0  0  0  0  0  0  0  0  0  0
  137.3819  151.6579  144.3963 C   0  0  0  0  0  0  0  0  0  0  0  0
  139.7051  151.1184  141.6077 C   0  0  0  0  0  0  0  0  0  0  0  0
  136.7557  152.5772  145.3074 C   0  0  0  0  0  0  0  0  0  0  0  0
  139.6288  150.4580  140.3315 C   0  0  0  0  0  0  0  0  0  0  0  0
  138.4571  149.6004  140.4454 C   0  0  0  0  0  0  0  0  0  0  0  0
  135.4568  152.3937  145.7654 C   0  0  0  0  0  0  0  0  0  0  0  0
  137.5807  149.8923  141.3497 C   0  0  0  0  0  0  0  0  0  0  0  0
  136.1161  149.2357  141.0244 C   0  0  0  0  0  0  0  0  0  0  0  0
  137.5797  150.4411  142.2334 C   0  0  0  0  0  0  0  0  0  0  0  0
  136.6622  150.6430  144.5260 C   0  0  0  0  0  0  0  0  0  0  0  0
  136.1955  150.5844  143.3610 C   0  0  0  0  0  0  0  0  0  0  0  0
  1  2  1  0
  2  3  2  0
  1  4  1  0
  3  5  1  0
  4  6  2  0
  6  7  1  0
  5  8  1  0
  7  9  2  0
  9 10  1  0
  1 11  2  0
  9 11  1  0
  3 12  1  0
 11 13  1  0
 12 13  1  0
M  END
$$$$

     RDKit          3D

 13 14  0  0  0  0  0  0  0  0999 V2000
  140.3036  150.2148  139.4783 Cl  0  0  0  0  0  0  0  0  0  0  0  0
  138.6783  150.1860  140.5319 C   0  0  0  0  0  0  0  0  0  0  0  0
  137.6385  149.3831  140.0945 C   0  0  0  0  0  0  0  0  0  0  0  0
  136.4392  149.4569  140.8209 C   0  0  0  0  0  0  0  0  0  0  0  0
  138.9819  150.6978  141.6811 C   0  0  0  0  0  0  0  0  0  0  0  0
  136.5079  150.3497  141.8163 C   0  0  0  0  0  0  0  0  0  0  0  0
  135.2761  150.6086  142.7157 C   0  0  0  0  0  0  0  0  0  0  0  0
  135.7352  151.2618  143.9974 C   0  0  0  0  0  0  0  0  0  0  0  0
  137.7540  150.9184  142.4496 C   0  0  0  0  0  0  0  0  0  0  0  0
  134.9719  151.8971  144.8940 C   0  0  0  0  0  0  0  0  0  0  0  0
  137.1774  151.1729  144.3192 C   0  0  0  0  0  0  0  0  0  0  0  0
  138.0160  151.2638  143.7674 C   0  0  0  0  0  0  0  0  0  0  0  0
  135.2663  151.9934  146.2473 C   0  0  0  0  0  0  0  0  0  0  0  0
  1  2  1  0
  2  3  2  0
  3  4  1  0
  2  5  1  0
  4  6  2  0
  6  7  1  0
  7  8  1  0
  5  9  2  0
  6  9  1  0
  8 10  2  3
  8 11  1  0
  9 12  1  0
 11 12  2  0
 10 13  1  0
M  END
$$$$

     RDKit          3D

 13 14  0  0  0  0  0  0  0  0999 V2000
  139.3427  149.9935  140.5880 C   0  0  0  0  0  0  0  0  0  0  0  0
  138.9528  149.9224  139.3656 C   0  0  0  0  0  0  0  0  0  0  0  0
  138.6122  150.1102  141.6416 C   0  0  0  0  0  0  0  0  0  0  0  0
  137.1910  149.8704  141.8331 C   0  0  0  0  0  0  0  0  0  0  0  0
  136.4707  150.2696  142.9684 C   0  0  0  0  0  0  0  0  0  0  0  0
  135.1320  150.3575  143.2741 C   0  0  0  0  0  0  0  0  0  0  0  0
  134.7294  151.0382  144.5260 C   0  0  0  0  0  0  0  0  0  0  0  0
  137.5216  150.6555  144.0748 C   0  0  0  0  0  0  0  0  0  0  0  0
  135.5802  151.5165  145.2506 C   0  0  0  0  0  0  0  0  0  0  0  0
  135.1622  152.3275  146.4591 C   0  0  0  0  0  0  0  0  0  0  0  0
  138.8793  150.4004  143.7058 C   0  0  0  0  0  0  0  0  0  0  0  0
  139.4346  150.6572  142.7153 C   0  0  0  0  0  0  0  0  0  0  0  0
  136.8807  151.2677  145.1677 C   0  0  0  0  0  0  0  0  0  0  0  0
  1  2  2  0
  1  3  1  0
  3  4  1  0
  4  5  2  0
  5  6  1  0
  6  7  2  0
  5  8  1  0
  7  9  1  0
  9 10  1  0
  8 11  1  0
  3 12  1  0
 11 12  1  0
  8 13  1  0
  9 13  2  0
M  END
$$$$

     RDKit          3D

 13 14  0  0  0  0  0  0  0  0999 V2000
  140.3036  150.2148  139.4783 Cl  0  0  0  0  0  0  0  0  0  0  0  0
  138.6783  150.1860  140.5319 C   0  0  0  0  0  0  0  0  0  0  0  0
  137.6385  149.3831  140.0945 C   0  0  0  0  0  0  0  0  0  0  0  0
  138.7505  150.9487  141.6715 C   0  0  0  0  0  0  0  0  0  0  0  0
  136.5606  149.6034  140.7973 C   0  0  0  0  0  0  0  0  0  0  0  0
  135.2960  149.0163  140.1852 C   0  0  0  0  0  0  0  0  0  0  0  0
  136.5422  150.4642  141.8563 C   0  0  0  0  0  0  0  0  0  0  0  0
  135.3353  150.6737  142.7430 C   0  0  0  0  0  0  0  0  0  0  0  0
  135.8342  151.3152  144.0623 C   0  0  0  0  0  0  0  0  0  0  0  0
  135.0704  151.6892  145.1071 C   0  0  0  0  0  0  0  0  0  0  0  0
  137.3358  151.5215  144.0764 C   0  0  0  0  0  0  0  0  0  0  0  0
  137.7019  151.0532  142.3840 C   0  0  0  0  0  0  0  0  0  0  0  0
  135.4885  151.8583  146.3292 C   0  0  0  0  0  0  0  0  0  0  0  0
  1  2  1  0
  2  3  2  0
  2  4  1  0
  3  5  1  0
  5  6  1  0
  5  7  2  0
  7  8  1  0
  8  9  2  0
  9 10  1  0
  9 11  1  0
  4 12  2  0
  7 12  1  0
 11 12  1  0
 10 13  1  0
M  END
$$$$

     RDKit          3D

 14 15  0  0  0  0  0  0  0  0999 V2000
  139.3427  149.9935  140.5880 C   0  0  0  0  0  0  0  0  0  0  0  0
  138.9528  149.9224  139.3656 C   0  0  0  0  0  0  0  0  0  0  0  0
  138.6122  150.1102  141.6416 C   0  0  0  0  0  0  0  0  0  0  0  0
  137.1910  149.8704  141.8331 C   0  0  0  0  0  0  0  0  0  0  0  0
  136.5134  149.7658  140.5812 C   0  0  0  0  0  0  0  0  0  0  0  0
  139.1788  150.4012  143.1353 C   0  0  0  0  0  0  0  0  0  0  0  0
  138.2249  150.9731  144.0852 C   0  0  0  0  0  0  0  0  0  0  0  0
  139.6664  149.8788  138.1669 C   0  0  0  0  0  0  0  0  0  0  0  0
  136.9452  150.8349  143.8835 C   0  0  0  0  0  0  0  0  0  0  0  0
  136.2904  150.3096  142.8062 C   0  0  0  0  0  0  0  0  0  0  0  0
  136.1187  151.3332  145.0488 C   0  0  0  0  0  0  0  0  0  0  0  0
  136.3123  151.1428  146.3186 C   0  0  0  0  0  0  0  0  0  0  0  0
  137.4183  149.7263  139.3770 C   0  0  0  0  0  0  0  0  0  0  0  0
  134.9530  152.2227  144.7920 C   0  0  0  0  0  0  0  0  0  0  0  0
  1  2  2  0
  1  3  1  0
  3  4  1  0
  4  5  2  0
  3  6  1  0
  6  7  2  0
  2  8  1  0
  7  9  1  0
  4 10  1  0
  9 10  1  0
  9 11  1  0
 11 12  2  0
  2 13  1  0
  5 13  1  0
 11 14  1  0
M  END
$$$$

     RDKit          3D

 14 15  0  0  0  0  0  0  0  0999 V2000
  139.5348  150.8906  142.2305 C   0  0  0  0  0  0  0  0  0  0  0  0
  139.0139  150.3976  141.0574 C   0  0  0  0  0  0  0  0  0  0  0  0
  138.6965  150.9489  143.4028 C   0  0  0  0  0  0  0  0  0  0  0  0
  137.7130  149.9460  141.0427 C   0  0  0  0  0  0  0  0  0  0  0  0
  137.5183  150.9374  143.4785 C   0  0  0  0  0  0  0  0  0  0  0  0
  136.6733  151.1274  144.6812 C   0  0  0  0  0  0  0  0  0  0  0  0
  139.8472  150.3901  139.8637 C   0  0  0  0  0  0  0  0  0  0  0  0
  136.7200  150.2063  141.8846 C   0  0  0  0  0  0  0  0  0  0  0  0
  136.4930  150.6203  143.0434 C   0  0  0  0  0  0  0  0  0  0  0  0
  139.3609  150.4992  138.6511 C   0  0  0  0  0  0  0  0  0  0  0  0
  141.2279  150.2661  140.1137 C   0  0  0  0  0  0  0  0  0  0  0  0
  135.8498  151.8394  144.7020 C   0  0  0  0  0  0  0  0  0  0  0  0
  135.0578  152.5566  145.7229 C   0  0  0  0  0  0  0  0  0  0  0  0
  135.3164  151.3807  143.4215 N   0  0  0  0  0  0  0  0  0  0  0  0
  1  2  2  0
  1  3  1  0
  2  4  1  0
  3  5  2  0
  5  6  1  0
  2  7  1  0
  4  8  2  0
  5  9  1  0
  8  9  1  0
  7 10  1  0
  7 11  2  0
  6 12  1  0
 12 13  1  0
  9 14  1  0
 12 14  1  0
M  END
$$$$

     RDKit          3D

 14 15  0  0  0  0  0  0  0  0999 V2000
  139.0004  149.7631  140.3649 C   0  0  0  0  0  0  0  0  0  0  0  0
  138.7142  149.5451  139.1249 C   0  0  0  0  0  0  0  0  0  0  0  0
  138.1856  150.1072  141.2839 C   0  0  0  0  0  0  0  0  0  0  0  0
  137.3213  149.5926  138.6821 C   0  0  0  0  0  0  0  0  0  0  0  0
  136.3776  149.8122  139.7323 C   0  0  0  0  0  0  0  0  0  0  0  0
  138.6498  150.4524  142.6761 C   0  0  0  0  0  0  0  0  0  0  0  0
  137.8095  150.9703  143.6446 C   0  0  0  0  0  0  0  0  0  0  0  0
  136.5355  151.0899  143.2204 C   0  0  0  0  0  0  0  0  0  0  0  0
  135.6032  151.5335  144.2586 C   0  0  0  0  0  0  0  0  0  0  0  0
  136.7388  150.1451  141.0023 C   0  0  0  0  0  0  0  0  0  0  0  0
  136.0053  150.6929  141.9649 C   0  0  0  0  0  0  0  0  0  0  0  0
  135.4586  151.1855  145.3749 C   0  0  0  0  0  0  0  0  0  0  0  0
  134.9147  152.0193  146.4838 C   0  0  0  0  0  0  0  0  0  0  0  0
  135.2262  152.0054  147.8398 C   0  0  0  0  0  0  0  0  0  0  0  0
  1  2  2  0
  1  3  1  0
  2  4  1  0
  4  5  2  0
  3  6  1  0
  6  7  2  0
  7  8  1  0
  8  9  1  0
  3 10  2  0
  5 10  1  0
  8 11  2  0
 10 11  1  0
  9 12  1  0
 12 13  2  3
 13 14  1  0
M  END
$$$$

     RDKit          3D

 14 15  0  0  0  0  0  0  0  0999 V2000
  138.9705  151.3124  142.5681 C   0  0  0  0  0  0  0  0  0  0  0  0
  138.6057  152.0894  143.2653 C   0  0  0  0  0  0  0  0  0  0  0  0
  137.5209  151.8314  144.2019 C   0  0  0  0  0  0  0  0  0  0  0  0
  136.5811  152.7823  144.6505 C   0  0  0  0  0  0  0  0  0  0  0  0
  139.7956  151.3595  141.3741 C   0  0  0  0  0  0  0  0  0  0  0  0
  135.9804  152.8193  145.6528 C   0  0  0  0  0  0  0  0  0  0  0  0
  139.5360  150.6466  140.2953 C   0  0  0  0  0  0  0  0  0  0  0  0
  136.0633  151.5366  146.3570 C   0  0  0  0  0  0  0  0  0  0  0  0
  138.3949  149.8648  140.3621 C   0  0  0  0  0  0  0  0  0  0  0  0
  137.2544  150.6517  144.9179 C   0  0  0  0  0  0  0  0  0  0  0  0
  138.0623  149.4888  144.4356 N   0  0  0  0  0  0  0  0  0  0  0  0
  138.1056  149.9993  142.3667 C   0  0  0  0  0  0  0  0  0  0  0  0
  136.5830  150.4142  145.9800 C   0  0  0  0  0  0  0  0  0  0  0  0
  137.8053  149.3089  141.2573 C   0  0  0  0  0  0  0  0  0  0  0  0
  1  2  2  3
  2  3  1  0
  3  4  1  0
  1  5  1  0
  4  6  2  0
  5  7  2  0
  6  8  1  0
  7  9  1  0
  3 10  2  0
 10 11  1  0
  1 12  1  0
  8 13  2  0
 10 13  1  0
  9 14  2  0
 12 14  1  0
M  END
$$$$

     RDKit          3D

 14 15  0  0  0  0  0  0  0  0999 V2000
  139.5348  150.8906  142.2305 C   0  0  0  0  0  0  0  0  0  0  0  0
  139.0139  150.3976  141.0574 C   0  0  0  0  0  0  0  0  0  0  0  0
  138.6965  150.9489  143.4028 C   0  0  0  0  0  0  0  0  0  0  0  0
  137.7130  149.9460  141.0427 C   0  0  0  0  0  0  0  0  0  0  0  0
  137.5183  150.9374  143.4785 C   0  0  0  0  0  0  0  0  0  0  0  0
  136.6733  151.1274  144.6812 C   0  0  0  0  0  0  0  0  0  0  0  0
  139.8472  150.3901  139.8637 C   0  0  0  0  0  0  0  0  0  0  0  0
  136.7200  150.2063  141.8846 C   0  0  0  0  0  0  0  0  0  0  0  0
  136.4930  150.6203  143.0434 C   0  0  0  0  0  0  0  0  0  0  0  0
  135.8664  151.8203  144.7141 C   0  0  0  0  0  0  0  0  0  0  0  0
  135.0874  152.5519  145.7463 C   0  0  0  0  0  0  0  0  0  0  0  0
  141.2321  150.2599  140.0266 C   0  0  0  0  0  0  0  0  0  0  0  0
  135.3044  151.0065  143.5900 N   0  0  0  0  0  0  0  0  0  0  0  0
  139.4218  150.4593  138.9373 O   0  0  0  0  0  0  0  0  0  0  0  0
  1  2  2  0
  1  3  1  0
  2  4  1  0
  3  5  2  0
  5  6  1  0
  2  7  1  0
  4  8  2  0
  5  9  1  0
  8  9  1  0
  6 10  1  0
 10 11  1  0
  7 12  1  0
  9 13  1  0
 10 13  1  0
  7 14  2  0
M  END
$$$$

     RDKit          3D

 14 15  0  0  0  0  0  0  0  0999 V2000
  139.5348  150.8906  142.2305 C   0  0  0  0  0  0  0  0  0  0  0  0
  139.0139  150.3976  141.0574 C   0  0  0  0  0  0  0  0  0  0  0  0
  138.6965  150.9489  143.4028 C   0  0  0  0  0  0  0  0  0  0  0  0
  137.7130  149.9460  141.0427 C   0  0  0  0  0  0  0  0  0  0  0  0
  137.5183  150.9374  143.4785 C   0  0  0  0  0  0  0  0  0  0  0  0
  136.6733  151.1274  144.6812 C   0  0  0  0  0  0  0  0  0  0  0  0
  139.8472  150.3901  139.8637 C   0  0  0  0  0  0  0  0  0  0  0  0
  136.7200  150.2063  141.8846 C   0  0  0  0  0  0  0  0  0  0  0  0
  136.4930  150.6203  143.0434 C   0  0  0  0  0  0  0  0  0  0  0  0
  135.8664  151.8203  144.7141 C   0  0  0  0  0  0  0  0  0  0  0  0
  135.0712  152.5387  145.8229 C   0  0  0  0  0  0  0  0  0  0  0  0
  141.2338  150.2775  140.0270 C   0  0  0  0  0  0  0  0  0  0  0  0
  135.3410  151.1650  143.5521 N   0  0  0  0  0  0  0  0  0  0  0  0
  139.4099  150.4492  138.9402 O   0  0  0  0  0  0  0  0  0  0  0  0
  1  2  2  0
  1  3  1  0
  2  4  1  0
  3  5  2  0
  5  6  1  0
  2  7  1  0
  4  8  2  0
  5  9  1  0
  8  9  1  0
  6 10  2  0
 10 11  1  0
  7 12  1  0
  9 13  1  0
 10 13  1  0
  7 14  2  0
M  END
$$$$

     RDKit          3D

 14 15  0  0  0  0  0  0  0  0999 V2000
  139.5348  150.8906  142.2305 C   0  0  0  0  0  0  0  0  0  0  0  0
  139.0139  150.3976  141.0574 C   0  0  0  0  0  0  0  0  0  0  0  0
  138.6965  150.9489  143.4028 C   0  0  0  0  0  0  0  0  0  0  0  0
  137.7130  149.9460  141.0427 C   0  0  0  0  0  0  0  0  0  0  0  0
  137.5183  150.9374  143.4785 C   0  0  0  0  0  0  0  0  0  0  0  0
  136.6733  151.1274  144.6812 C   0  0  0  0  0  0  0  0  0  0  0  0
  139.8472  150.3901  139.8637 C   0  0  0  0  0  0  0  0  0  0  0  0
  136.7200  150.2063  141.8846 C   0  0  0  0  0  0  0  0  0  0  0  0
  136.4930  150.6203  143.0434 C   0  0  0  0  0  0  0  0  0  0  0  0
  139.3609  150.4992  138.6511 C   0  0  0  0  0  0  0  0  0  0  0  0
  141.0593  150.6025  140.2414 O   0  0  0  0  0  0  0  0  0  0  0  0
  135.8666  151.8257  144.7378 C   0  0  0  0  0  0  0  0  0  0  0  0
  135.0890  152.5415  145.8501 C   0  0  0  0  0  0  0  0  0  0  0  0
  135.2455  151.4637  143.4498 N   0  0  0  0  0  0  0  0  0  0  0  0
  1  2  2  0
  1  3  1  0
  2  4  1  0
  3  5  2  0
  5  6  1  0
  2  7  1  0
  4  8  2  0
  5  9  1  0
  8  9  1  0
  7 10  1  0
  7 11  2  0
  6 12  2  0
 12 13  1  0
  9 14  2  0
 12 14  1  0
M  END
$$$$

     RDKit          3D

 14 15  0  0  0  0  0  0  0  0999 V2000
  139.3427  149.9935  140.5880 C   0  0  0  0  0  0  0  0  0  0  0  0
  138.9528  149.9224  139.3656 C   0  0  0  0  0  0  0  0  0  0  0  0
  138.6122  150.1102  141.6416 C   0  0  0  0  0  0  0  0  0  0  0  0
  137.1910  149.8704  141.8331 C   0  0  0  0  0  0  0  0  0  0  0  0
  136.4707  150.2696  142.9684 C   0  0  0  0  0  0  0  0  0  0  0  0
  135.1320  150.3575  143.2741 C   0  0  0  0  0  0  0  0  0  0  0  0
  134.7294  151.0382  144.5260 C   0  0  0  0  0  0  0  0  0  0  0  0
  137.5216  150.6555  144.0748 C   0  0  0  0  0  0  0  0  0  0  0  0
  135.5802  151.5165  145.2506 C   0  0  0  0  0  0  0  0  0  0  0  0
  137.1990  151.4827  145.0820 C   0  0  0  0  0  0  0  0  0  0  0  0
  135.1848  152.4109  146.2774 C   0  0  0  0  0  0  0  0  0  0  0  0
  138.7826  150.6901  143.3651 C   0  0  0  0  0  0  0  0  0  0  0  0
  140.8035  150.1066  140.8612 C   0  0  0  0  0  0  0  0  0  0  0  0
  137.6787  149.5287  139.0035 C   0  0  0  0  0  0  0  0  0  0  0  0
  1  2  2  3
  1  3  1  0
  3  4  1  0
  4  5  2  0
  5  6  1  0
  6  7  2  0
  5  8  1  0
  7  9  1  0
  8 10  1  0
  9 10  1  0
  9 11  1  0
  3 12  2  0
  8 12  1  0
  1 13  1  0
  2 14  1  0
M  END
$$$$

     RDKit          3D

 14 15  0  0  0  0  0  0  0  0999 V2000
  139.5348  150.8906  142.2305 C   0  0  0  0  0  0  0  0  0  0  0  0
  139.0139  150.3976  141.0574 C   0  0  0  0  0  0  0  0  0  0  0  0
  138.6965  150.9489  143.4028 C   0  0  0  0  0  0  0  0  0  0  0  0
  137.7130  149.9460  141.0427 C   0  0  0  0  0  0  0  0  0  0  0  0
  137.5183  150.9374  143.4785 C   0  0  0  0  0  0  0  0  0  0  0  0
  136.6733  151.1274  144.6812 C   0  0  0  0  0  0  0  0  0  0  0  0
  139.8472  150.3901  139.8637 C   0  0  0  0  0  0  0  0  0  0  0  0
  136.7200  150.2063  141.8846 C   0  0  0  0  0  0  0  0  0  0  0  0
  139.3494  150.4799  138.6289 C   0  0  0  0  0  0  0  0  0  0  0  0
  136.4777  150.6313  143.0502 C   0  0  0  0  0  0  0  0  0  0  0  0
  135.4300  151.4343  144.6199 C   0  0  0  0  0  0  0  0  0  0  0  0
  135.1311  150.9161  143.4090 N   0  0  0  0  0  0  0  0  0  0  0  0
  141.0656  150.6369  140.2158 C   0  0  0  0  0  0  0  0  0  0  0  0
  134.7046  151.9400  145.5526 N   0  0  0  0  0  0  0  0  0  0  0  0
  1  2  2  0
  1  3  1  0
  2  4  1  0
  3  5  2  0
  5  6  1  0
  2  7  1  0
  4  8  2  0
  7  9  1  0
  5 10  1  0
  8 10  1  0
  6 11  1  0
 10 12  2  0
 11 12  1  0
  7 13  2  0
 11 14  1  0
M  END
$$$$

     RDKit          3D

 14 15  0  0  0  0  0  0  0  0999 V2000
  139.5348  150.8906  142.2305 C   0  0  0  0  0  0  0  0  0  0  0  0
  139.0139  150.3976  141.0574 C   0  0  0  0  0  0  0  0  0  0  0  0
  138.6965  150.9489  143.4028 C   0  0  0  0  0  0  0  0  0  0  0  0
  137.7130  149.9460  141.0427 C   0  0  0  0  0  0  0  0  0  0  0  0
  137.5183  150.9374  143.4785 C   0  0  0  0  0  0  0  0  0  0  0  0
  136.6733  151.1274  144.6812 C   0  0  0  0  0  0  0  0  0  0  0  0
  139.8472  150.3901  139.8637 C   0  0  0  0  0  0  0  0  0  0  0  0
  136.7200  150.2063  141.8846 C   0  0  0  0  0  0  0  0  0  0  0  0
  136.4930  150.6203  143.0434 C   0  0  0  0  0  0  0  0  0  0  0  0
  141.2312  150.2837  140.0282 C   0  0  0  0  0  0  0  0  0  0  0  0
  135.4331  151.4236  144.6189 C   0  0  0  0  0  0  0  0  0  0  0  0
  139.4280  150.4429  138.9443 O   0  0  0  0  0  0  0  0  0  0  0  0
  135.3845  150.9501  143.5879 N   0  0  0  0  0  0  0  0  0  0  0  0
  134.8111  151.9588  145.6375 N   0  0  0  0  0  0  0  0  0  0  0  0
  1  2  2  0
  1  3  1  0
  2  4  1  0
  3  5  2  0
  5  6  1  0
  2  7  1  0
  4  8  2  0
  5  9  1  0
  8  9  1  0
  7 10  1  0
  6 11  1  0
  7 12  2  0
  9 13  2  0
 11 13  1  0
 11 14  1  0
M  END
$$$$

     RDKit          3D

 14 15  0  0  0  0  0  0  0  0999 V2000
  139.3427  149.9935  140.5880 C   0  0  0  0  0  0  0  0  0  0  0  0
  138.9528  149.9224  139.3656 C   0  0  0  0  0  0  0  0  0  0  0  0
  138.6122  150.1102  141.6416 C   0  0  0  0  0  0  0  0  0  0  0  0
  137.1910  149.8704  141.8331 C   0  0  0  0  0  0  0  0  0  0  0  0
  136.5134  149.7658  140.5812 C   0  0  0  0  0  0  0  0  0  0  0  0
  139.1788  150.4012  143.1353 C   0  0  0  0  0  0  0  0  0  0  0  0
  138.2249  150.9731  144.0852 C   0  0  0  0  0  0  0  0  0  0  0  0
  136.4855  150.1086  143.0259 C   0  0  0  0  0  0  0  0  0  0  0  0
  139.6856  149.9021  138.1886 C   0  0  0  0  0  0  0  0  0  0  0  0
  136.9969  150.6445  144.1273 C   0  0  0  0  0  0  0  0  0  0  0  0
  135.1590  149.5880  140.4716 C   0  0  0  0  0  0  0  0  0  0  0  0
  137.0930  149.5899  139.2353 C   0  0  0  0  0  0  0  0  0  0  0  0
  136.1377  151.1508  145.3472 C   0  0  0  0  0  0  0  0  0  0  0  0
  136.5227  151.4985  146.4752 C   0  0  0  0  0  0  0  0  0  0  0  0
  1  2  2  0
  1  3  1  0
  3  4  1  0
  4  5  2  0
  3  6  1  0
  6  7  2  0
  4  8  1  0
  2  9  1  0
  7 10  1  0
  8 10  2  0
  5 11  1  0
  2 12  1  0
  5 12  1  0
 10 13  1  0
 13 14  2  0
M  END
$$$$

     RDKit          3D

 14 15  0  0  0  0  0  0  0  0999 V2000
  138.9705  151.3124  142.5681 C   0  0  0  0  0  0  0  0  0  0  0  0
  138.6057  152.0894  143.2653 C   0  0  0  0  0  0  0  0  0  0  0  0
  137.5209  151.8314  144.2019 C   0  0  0  0  0  0  0  0  0  0  0  0
  136.5811  152.7823  144.6505 C   0  0  0  0  0  0  0  0  0  0  0  0
  139.7956  151.3595  141.3741 C   0  0  0  0  0  0  0  0  0  0  0  0
  135.9804  152.8193  145.6528 C   0  0  0  0  0  0  0  0  0  0  0  0
  139.5360  150.6466  140.2953 C   0  0  0  0  0  0  0  0  0  0  0  0
  136.0633  151.5366  146.3570 C   0  0  0  0  0  0  0  0  0  0  0  0
  138.3949  149.8648  140.3621 C   0  0  0  0  0  0  0  0  0  0  0  0
  137.2544  150.6517  144.9179 C   0  0  0  0  0  0  0  0  0  0  0  0
  135.2489  151.5097  147.6255 C   0  0  0  0  0  0  0  0  0  0  0  0
  138.3324  150.0602  142.3870 C   0  0  0  0  0  0  0  0  0  0  0  0
  137.9085  149.3976  141.4055 C   0  0  0  0  0  0  0  0  0  0  0  0
  136.5400  150.4786  146.0176 C   0  0  0  0  0  0  0  0  0  0  0  0
  1  2  2  3
  2  3  1  0
  3  4  1  0
  1  5  1  0
  4  6  2  0
  5  7  2  0
  6  8  1  0
  7  9  1  0
  3 10  2  0
  8 11  1  0
  1 12  1  0
  9 13  1  0
 12 13  2  0
  8 14  2  0
 10 14  1  0
M  END
$$$$

     RDKit          3D

 14 15  0  0  0  0  0  0  0  0999 V2000
  139.3427  149.9935  140.5880 C   0  0  0  0  0  0  0  0  0  0  0  0
  138.9528  149.9224  139.3656 C   0  0  0  0  0  0  0  0  0  0  0  0
  138.6122  150.1102  141.6416 C   0  0  0  0  0  0  0  0  0  0  0  0
  137.1910  149.8704  141.8331 C   0  0  0  0  0  0  0  0  0  0  0  0
  136.5134  149.7658  140.5812 C   0  0  0  0  0  0  0  0  0  0  0  0
  139.1788  150.4012  143.1353 C   0  0  0  0  0  0  0  0  0  0  0  0
  138.2249  150.9731  144.0852 C   0  0  0  0  0  0  0  0  0  0  0  0
  136.4855  150.1086  143.0259 C   0  0  0  0  0  0  0  0  0  0  0  0
  139.6856  149.9021  138.1886 C   0  0  0  0  0  0  0  0  0  0  0  0
  137.4177  149.7816  139.3599 C   0  0  0  0  0  0  0  0  0  0  0  0
  136.9994  150.6112  144.0983 C   0  0  0  0  0  0  0  0  0  0  0  0
  136.1974  151.0421  145.2449 C   0  0  0  0  0  0  0  0  0  0  0  0
  135.1779  151.9583  145.0536 C   0  0  0  0  0  0  0  0  0  0  0  0
  135.1811  153.0404  145.9594 C   0  0  0  0  0  0  0  0  0  0  0  0
  1  2  2  0
  1  3  1  0
  3  4  1  0
  4  5  2  0
  3  6  1  0
  6  7  2  0
  4  8  1  0
  2  9  1  0
  2 10  1  0
  5 10  1  0
  7 11  1  0
  8 11  2  0
 11 12  1  0
 12 13  1  0
 13 14  1  0
M  END
$$$$

     RDKit          3D

 14 15  0  0  0  0  0  0  0  0999 V2000
  139.3427  149.9935  140.5880 C   0  0  0  0  0  0  0  0  0  0  0  0
  138.9528  149.9224  139.3656 C   0  0  0  0  0  0  0  0  0  0  0  0
  138.6122  150.1102  141.6416 C   0  0  0  0  0  0  0  0  0  0  0  0
  137.1910  149.8704  141.8331 C   0  0  0  0  0  0  0  0  0  0  0  0
  136.5134  149.7658  140.5812 C   0  0  0  0  0  0  0  0  0  0  0  0
  139.1788  150.4012  143.1353 C   0  0  0  0  0  0  0  0  0  0  0  0
  138.2249  150.9731  144.0852 C   0  0  0  0  0  0  0  0  0  0  0  0
  139.6664  149.8788  138.1669 C   0  0  0  0  0  0  0  0  0  0  0  0
  136.4809  150.1375  143.0193 C   0  0  0  0  0  0  0  0  0  0  0  0
  136.9815  150.6515  144.0754 C   0  0  0  0  0  0  0  0  0  0  0  0
  135.1633  149.5858  140.4587 C   0  0  0  0  0  0  0  0  0  0  0  0
  137.3706  149.7074  139.3219 C   0  0  0  0  0  0  0  0  0  0  0  0
  136.1142  151.1779  145.3183 C   0  0  0  0  0  0  0  0  0  0  0  0
  135.1421  152.0647  144.9916 C   0  0  0  0  0  0  0  0  0  0  0  0
  1  2  2  0
  1  3  1  0
  3  4  1  0
  4  5  2  0
  3  6  1  0
  6  7  2  0
  2  8  1  0
  4  9  1  0
  7 10  1  0
  9 10  2  0
  5 11  1  0
  2 12  1  0
  5 12  1  0
 10 13  1  0
 13 14  1  0
M  END
$$$$

     RDKit          3D

 14 15  0  0  0  0  0  0  0  0999 V2000
  139.5348  150.8906  142.2305 C   0  0  0  0  0  0  0  0  0  0  0  0
  139.0139  150.3976  141.0574 C   0  0  0  0  0  0  0  0  0  0  0  0
  138.6965  150.9489  143.4028 C   0  0  0  0  0  0  0  0  0  0  0  0
  137.7130  149.9460  141.0427 C   0  0  0  0  0  0  0  0  0  0  0  0
  137.5183  150.9374  143.4785 C   0  0  0  0  0  0  0  0  0  0  0  0
  136.6733  151.1274  144.6812 C   0  0  0  0  0  0  0  0  0  0  0  0
  139.8472  150.3901  139.8637 C   0  0  0  0  0  0  0  0  0  0  0  0
  136.7200  150.2063  141.8846 C   0  0  0  0  0  0  0  0  0  0  0  0
  141.2316  150.2438  139.9961 C   0  0  0  0  0  0  0  0  0  0  0  0
  135.2514  149.9903  141.0543 Cl  0  0  0  0  0  0  0  0  0  0  0  0
  136.5727  150.7093  143.1113 C   0  0  0  0  0  0  0  0  0  0  0  0
  135.3720  151.5946  145.0093 C   0  0  0  0  0  0  0  0  0  0  0  0
  139.3428  150.5705  138.9011 O   0  0  0  0  0  0  0  0  0  0  0  0
  135.3045  152.0959  146.3689 C   0  0  0  0  0  0  0  0  0  0  0  0
  1  2  2  0
  1  3  1  0
  2  4  1  0
  3  5  2  0
  5  6  1  0
  2  7  1  0
  4  8  2  0
  7  9  1  0
  8 10  1  0
  5 11  1  0
  6 11  1  0
  8 11  1  0
  6 12  1  0
  7 13  2  0
 12 14  1  0
M  END
$$$$

     RDKit          3D

 14 15  0  0  0  0  0  0  0  0999 V2000
  138.9705  151.3124  142.5681 C   0  0  0  0  0  0  0  0  0  0  0  0
  138.6057  152.0894  143.2653 C   0  0  0  0  0  0  0  0  0  0  0  0
  137.6600  151.8349  144.0467 C   0  0  0  0  0  0  0  0  0  0  0  0
  139.9939  151.3511  141.4314 C   0  0  0  0  0  0  0  0  0  0  0  0
  137.4795  150.6675  144.8972 C   0  0  0  0  0  0  0  0  0  0  0  0
  139.6568  150.7243  140.2644 C   0  0  0  0  0  0  0  0  0  0  0  0
  138.5004  150.0428  140.1974 C   0  0  0  0  0  0  0  0  0  0  0  0
  137.5686  149.8234  141.3807 C   0  0  0  0  0  0  0  0  0  0  0  0
  140.5888  150.6785  139.1831 C   0  0  0  0  0  0  0  0  0  0  0  0
  138.0055  150.3807  142.5466 C   0  0  0  0  0  0  0  0  0  0  0  0
  137.0383  150.4395  146.0865 C   0  0  0  0  0  0  0  0  0  0  0  0
  137.9792  149.5636  139.0281 C   0  0  0  0  0  0  0  0  0  0  0  0
  136.8995  149.8882  138.4833 O   0  0  0  0  0  0  0  0  0  0  0  0
  137.5007  149.7451  143.6127 O   0  0  0  0  0  0  0  0  0  0  0  0
  1  2  2  0
  2  3  1  0
  1  4  1  0
  3  5  2  0
  4  6  2  0
  6  7  1  0
  7  8  1  0
  6  9  1  0
  1 10  1  0
  8 10  2  0
  5 11  1  0
  7 12  2  3
 12 13  1  0
  5 14  1  0
 10 14  1  0
M  END
$$$$

     RDKit          3D

 14 15  0  0  0  0  0  0  0  0999 V2000
  140.3036  150.2148  139.4783 Cl  0  0  0  0  0  0  0  0  0  0  0  0
  138.6783  150.1860  140.5319 C   0  0  0  0  0  0  0  0  0  0  0  0
  137.6385  149.3831  140.0945 C   0  0  0  0  0  0  0  0  0  0  0  0
  138.8668  150.7183  141.4516 C   0  0  0  0  0  0  0  0  0  0  0  0
  138.3194  150.9395  142.2987 C   0  0  0  0  0  0  0  0  0  0  0  0
  136.9007  150.1342  142.2766 C   0  0  0  0  0  0  0  0  0  0  0  0
  136.0346  150.4104  143.3393 C   0  0  0  0  0  0  0  0  0  0  0  0
  137.4083  148.7821  138.9116 C   0  0  0  0  0  0  0  0  0  0  0  0
  136.5594  149.5457  141.0880 C   0  0  0  0  0  0  0  0  0  0  0  0
  138.4804  151.6715  143.7636 C   0  0  0  0  0  0  0  0  0  0  0  0
  137.3661  151.8338  144.4131 C   0  0  0  0  0  0  0  0  0  0  0  0
  136.2429  151.1632  144.3879 C   0  0  0  0  0  0  0  0  0  0  0  0
  135.3303  151.6009  145.4915 C   0  0  0  0  0  0  0  0  0  0  0  0
  137.2476  152.8360  145.3672 O   0  0  0  0  0  0  0  0  0  0  0  0
  1  2  1  0
  2  3  2  0
  2  4  1  0
  4  5  2  0
  5  6  1  0
  6  7  1  0
  3  8  1  0
  3  9  1  0
  6  9  2  0
  5 10  1  0
 10 11  1  0
  7 12  2  0
 11 12  1  0
 12 13  1  0
 11 14  2  0
M  END
$$$$

     RDKit          3D

 14 15  0  0  0  0  0  0  0  0999 V2000
  140.3036  150.2148  139.4783 Cl  0  0  0  0  0  0  0  0  0  0  0  0
  138.6783  150.1860  140.5319 C   0  0  0  0  0  0  0  0  0  0  0  0
  137.6385  149.3831  140.0945 C   0  0  0  0  0  0  0  0  0  0  0  0
  138.7505  150.9487  141.6715 C   0  0  0  0  0  0  0  0  0  0  0  0
  136.5606  149.6034  140.7973 C   0  0  0  0  0  0  0  0  0  0  0  0
  136.3933  150.3970  141.9259 C   0  0  0  0  0  0  0  0  0  0  0  0
  135.1767  150.5746  142.7425 C   0  0  0  0  0  0  0  0  0  0  0  0
  135.6228  151.2741  143.9969 C   0  0  0  0  0  0  0  0  0  0  0  0
  134.8095  151.6415  145.0435 C   0  0  0  0  0  0  0  0  0  0  0  0
  133.6651  151.4000  145.3589 C   0  0  0  0  0  0  0  0  0  0  0  0
  136.9737  151.7929  144.2121 C   0  0  0  0  0  0  0  0  0  0  0  0
  137.4391  152.2873  145.3078 C   0  0  0  0  0  0  0  0  0  0  0  0
  137.6887  151.0934  142.4372 C   0  0  0  0  0  0  0  0  0  0  0  0
  137.8815  151.8442  143.5793 C   0  0  0  0  0  0  0  0  0  0  0  0
  1  2  1  0
  2  3  2  0
  2  4  1  0
  3  5  1  0
  5  6  2  0
  6  7  1  0
  7  8  2  0
  8  9  1  0
  9 10  2  0
  8 11  1  0
 11 12  1  0
  4 13  2  0
  6 13  1  0
 11 14  2  0
 13 14  1  0
M  END
$$$$

     RDKit          3D

 14 15  0  0  0  0  0  0  0  0999 V2000
  139.5348  150.8906  142.2305 C   0  0  0  0  0  0  0  0  0  0  0  0
  139.0139  150.3976  141.0574 C   0  0  0  0  0  0  0  0  0  0  0  0
  138.6965  150.9489  143.4028 C   0  0  0  0  0  0  0  0  0  0  0  0
  137.7130  149.9460  141.0427 C   0  0  0  0  0  0  0  0  0  0  0  0
  137.5183  150.9374  143.4785 C   0  0  0  0  0  0  0  0  0  0  0  0
  136.6733  151.1274  144.6812 C   0  0  0  0  0  0  0  0  0  0  0  0
  139.8472  150.3901  139.8637 C   0  0  0  0  0  0  0  0  0  0  0  0
  136.7200  150.2063  141.8846 C   0  0  0  0  0  0  0  0  0  0  0  0
  136.4930  150.6203  143.0434 C   0  0  0  0  0  0  0  0  0  0  0  0
  139.3609  150.4992  138.6511 C   0  0  0  0  0  0  0  0  0  0  0  0
  141.0593  150.6025  140.2414 O   0  0  0  0  0  0  0  0  0  0  0  0
  135.8666  151.8257  144.7378 C   0  0  0  0  0  0  0  0  0  0  0  0
  135.0890  152.5415  145.8501 C   0  0  0  0  0  0  0  0  0  0  0  0
  135.2455  151.4637  143.4498 C   0  0  0  0  0  0  0  0  0  0  0  0
  1  2  2  0
  1  3  1  0
  2  4  1  0
  3  5  2  0
  5  6  1  0
  2  7  1  0
  4  8  2  0
  5  9  1  0
  8  9  1  0
  7 10  1  0
  7 11  2  0
  6 12  2  0
 12 13  1  0
  9 14  2  0
 12 14  1  0
M  END
$$$$

     RDKit          3D

 14 15  0  0  0  0  0  0  0  0999 V2000
  139.3427  149.9935  140.5880 C   0  0  0  0  0  0  0  0  0  0  0  0
  138.9528  149.9224  139.3656 C   0  0  0  0  0  0  0  0  0  0  0  0
  138.6122  150.1102  141.6416 C   0  0  0  0  0  0  0  0  0  0  0  0
  137.1910  149.8704  141.8331 C   0  0  0  0  0  0  0  0  0  0  0  0
  136.5134  149.7658  140.5812 C   0  0  0  0  0  0  0  0  0  0  0  0
  139.1788  150.4012  143.1353 C   0  0  0  0  0  0  0  0  0  0  0  0
  138.2249  150.9731  144.0852 C   0  0  0  0  0  0  0  0  0  0  0  0
  139.6664  149.8788  138.1669 C   0  0  0  0  0  0  0  0  0  0  0  0
  136.9452  150.8349  143.8835 C   0  0  0  0  0  0  0  0  0  0  0  0
  136.1460  151.2524  145.1339 C   0  0  0  0  0  0  0  0  0  0  0  0
  136.9869  149.6852  139.2232 C   0  0  0  0  0  0  0  0  0  0  0  0
  136.3474  150.2854  142.7716 C   0  0  0  0  0  0  0  0  0  0  0  0
  136.4764  151.3000  146.3186 C   0  0  0  0  0  0  0  0  0  0  0  0
  135.1981  152.2100  144.9336 C   0  0  0  0  0  0  0  0  0  0  0  0
  1  2  2  0
  1  3  1  0
  3  4  1  0
  4  5  2  0
  3  6  1  0
  6  7  2  0
  2  8  1  0
  7  9  1  0
  9 10  1  0
  2 11  1  0
  5 11  1  0
  4 12  1  0
  9 12  2  0
 10 13  1  0
 10 14  1  0
M  END
$$$$

     RDKit          3D

 14 15  0  0  0  0  0  0  0  0999 V2000
  139.5348  150.8906  142.2305 C   0  0  0  0  0  0  0  0  0  0  0  0
  139.0139  150.3976  141.0574 C   0  0  0  0  0  0  0  0  0  0  0  0
  138.6965  150.9489  143.4028 C   0  0  0  0  0  0  0  0  0  0  0  0
  137.7130  149.9460  141.0427 C   0  0  0  0  0  0  0  0  0  0  0  0
  137.5183  150.9374  143.4785 C   0  0  0  0  0  0  0  0  0  0  0  0
  136.6733  151.1274  144.6812 C   0  0  0  0  0  0  0  0  0  0  0  0
  139.8472  150.3901  139.8637 C   0  0  0  0  0  0  0  0  0  0  0  0
  136.7200  150.2063  141.8846 C   0  0  0  0  0  0  0  0  0  0  0  0
  136.4930  150.6203  143.0434 C   0  0  0  0  0  0  0  0  0  0  0  0
  135.8664  151.8203  144.7141 C   0  0  0  0  0  0  0  0  0  0  0  0
  135.0874  152.5519  145.7463 C   0  0  0  0  0  0  0  0  0  0  0  0
  141.2321  150.2599  140.0266 C   0  0  0  0  0  0  0  0  0  0  0  0
  139.4149  150.5374  138.8443 O   0  0  0  0  0  0  0  0  0  0  0  0
  135.4107  150.9729  143.5323 C   0  0  0  0  0  0  0  0  0  0  0  0
  1  2  2  0
  1  3  1  0
  2  4  1  0
  3  5  2  0
  5  6  1  0
  2  7  1  0
  4  8  2  0
  5  9  1  0
  8  9  1  0
  6 10  1  0
 10 11  1  0
  7 12  1  0
  7 13  2  0
  9 14  1  0
 10 14  1  0
M  END
$$$$

     RDKit          3D

 14 15  0  0  0  0  0  0  0  0999 V2000
  139.5348  150.8906  142.2305 C   0  0  0  0  0  0  0  0  0  0  0  0
  139.0139  150.3976  141.0574 C   0  0  0  0  0  0  0  0  0  0  0  0
  138.6965  150.9489  143.4028 C   0  0  0  0  0  0  0  0  0  0  0  0
  137.7130  149.9460  141.0427 C   0  0  0  0  0  0  0  0  0  0  0  0
  137.5183  150.9374  143.4785 C   0  0  0  0  0  0  0  0  0  0  0  0
  136.6733  151.1274  144.6812 C   0  0  0  0  0  0  0  0  0  0  0  0
  139.8472  150.3901  139.8637 C   0  0  0  0  0  0  0  0  0  0  0  0
  136.7200  150.2063  141.8846 C   0  0  0  0  0  0  0  0  0  0  0  0
  136.4930  150.6203  143.0434 C   0  0  0  0  0  0  0  0  0  0  0  0
  139.3609  150.4992  138.6511 C   0  0  0  0  0  0  0  0  0  0  0  0
  141.2279  150.2661  140.1137 C   0  0  0  0  0  0  0  0  0  0  0  0
  135.8498  151.8394  144.7020 C   0  0  0  0  0  0  0  0  0  0  0  0
  135.0578  152.5566  145.7229 C   0  0  0  0  0  0  0  0  0  0  0  0
  135.3164  151.3807  143.4215 C   0  0  0  0  0  0  0  0  0  0  0  0
  1  2  2  0
  1  3  1  0
  2  4  1  0
  3  5  2  0
  5  6  1  0
  2  7  1  0
  4  8  2  0
  5  9  1  0
  8  9  1  0
  7 10  1  0
  7 11  2  0
  6 12  1  0
 12 13  1  0
  9 14  1  0
 12 14  1  0
M  END
$$$$

     RDKit          3D

 14 15  0  0  0  0  0  0  0  0999 V2000
  139.5348  150.8906  142.2305 C   0  0  0  0  0  0  0  0  0  0  0  0
  139.0139  150.3976  141.0574 C   0  0  0  0  0  0  0  0  0  0  0  0
  138.6965  150.9489  143.4028 C   0  0  0  0  0  0  0  0  0  0  0  0
  137.7130  149.9460  141.0427 C   0  0  0  0  0  0  0  0  0  0  0  0
  137.5183  150.9374  143.4785 C   0  0  0  0  0  0  0  0  0  0  0  0
  136.6733  151.1274  144.6812 C   0  0  0  0  0  0  0  0  0  0  0  0
  139.8472  150.3901  139.8637 C   0  0  0  0  0  0  0  0  0  0  0  0
  136.7200  150.2063  141.8846 C   0  0  0  0  0  0  0  0  0  0  0  0
  136.4930  150.6203  143.0434 C   0  0  0  0  0  0  0  0  0  0  0  0
  141.2312  150.2837  140.0282 C   0  0  0  0  0  0  0  0  0  0  0  0
  135.4331  151.4236  144.6189 C   0  0  0  0  0  0  0  0  0  0  0  0
  139.4093  150.5415  138.8486 O   0  0  0  0  0  0  0  0  0  0  0  0
  134.4724  152.0228  145.6104 C   0  0  0  0  0  0  0  0  0  0  0  0
  135.4289  150.8688  143.5275 N   0  0  0  0  0  0  0  0  0  0  0  0
  1  2  2  0
  1  3  1  0
  2  4  1  0
  3  5  2  0
  5  6  1  0
  2  7  1  0
  4  8  2  0
  5  9  1  0
  8  9  1  0
  7 10  1  0
  6 11  1  0
  7 12  2  0
 11 13  1  0
  9 14  2  0
 11 14  1  0
M  END
$$$$

     RDKit          3D

 14 15  0  0  0  0  0  0  0  0999 V2000
  139.5348  150.8906  142.2305 C   0  0  0  0  0  0  0  0  0  0  0  0
  139.0139  150.3976  141.0574 C   0  0  0  0  0  0  0  0  0  0  0  0
  138.6965  150.9489  143.4028 C   0  0  0  0  0  0  0  0  0  0  0  0
  137.7130  149.9460  141.0427 C   0  0  0  0  0  0  0  0  0  0  0  0
  137.5183  150.9374  143.4785 C   0  0  0  0  0  0  0  0  0  0  0  0
  136.6733  151.1274  144.6812 C   0  0  0  0  0  0  0  0  0  0  0  0
  139.8472  150.3901  139.8637 C   0  0  0  0  0  0  0  0  0  0  0  0
  136.7200  150.2063  141.8846 C   0  0  0  0  0  0  0  0  0  0  0  0
  136.4930  150.6203  143.0434 C   0  0  0  0  0  0  0  0  0  0  0  0
  139.3609  150.4992  138.6511 C   0  0  0  0  0  0  0  0  0  0  0  0
  135.4250  151.4126  144.6139 C   0  0  0  0  0  0  0  0  0  0  0  0
  141.0667  150.6098  140.2321 C   0  0  0  0  0  0  0  0  0  0  0  0
  134.4865  151.8878  145.6639 C   0  0  0  0  0  0  0  0  0  0  0  0
  135.1653  150.9239  143.4539 N   0  0  0  0  0  0  0  0  0  0  0  0
  1  2  2  0
  1  3  1  0
  2  4  1  0
  3  5  2  0
  5  6  1  0
  2  7  1  0
  4  8  2  0
  5  9  1  0
  8  9  1  0
  7 10  1  0
  6 11  2  0
  7 12  2  0
 11 13  1  0
  9 14  2  0
 11 14  1  0
M  END
$$$$

     RDKit          3D

 14 15  0  0  0  0  0  0  0  0999 V2000
  140.3036  150.2148  139.4783 Cl  0  0  0  0  0  0  0  0  0  0  0  0
  138.6783  150.1860  140.5319 C   0  0  0  0  0  0  0  0  0  0  0  0
  137.6385  149.3831  140.0945 C   0  0  0  0  0  0  0  0  0  0  0  0
  138.7505  150.9487  141.6715 C   0  0  0  0  0  0  0  0  0  0  0  0
  136.5606  149.6034  140.7973 C   0  0  0  0  0  0  0  0  0  0  0  0
  135.2960  149.0163  140.1852 C   0  0  0  0  0  0  0  0  0  0  0  0
  136.5422  150.4642  141.8563 C   0  0  0  0  0  0  0  0  0  0  0  0
  135.3353  150.6737  142.7430 C   0  0  0  0  0  0  0  0  0  0  0  0
  135.7908  151.4836  143.9525 C   0  0  0  0  0  0  0  0  0  0  0  0
  137.2295  151.6883  143.9225 C   0  0  0  0  0  0  0  0  0  0  0  0
  137.7186  151.0588  142.5101 C   0  0  0  0  0  0  0  0  0  0  0  0
  134.9560  151.8429  144.9258 C   0  0  0  0  0  0  0  0  0  0  0  0
  135.3364  152.5322  145.9069 C   0  0  0  0  0  0  0  0  0  0  0  0
  134.6281  152.7722  147.1299 C   0  0  0  0  0  0  0  0  0  0  0  0
  1  2  1  0
  2  3  2  0
  2  4  1  0
  3  5  1  0
  5  6  1  0
  5  7  2  0
  7  8  1  0
  8  9  1  0
  9 10  2  0
  4 11  2  0
  7 11  1  0
 10 11  1  0
  9 12  1  0
 12 13  1  0
 13 14  1  0
M  END
$$$$

     RDKit          3D

 14 15  0  0  0  0  0  0  0  0999 V2000
  140.3036  150.2148  139.4783 Cl  0  0  0  0  0  0  0  0  0  0  0  0
  138.6783  150.1860  140.5319 C   0  0  0  0  0  0  0  0  0  0  0  0
  137.6385  149.3831  140.0945 C   0  0  0  0  0  0  0  0  0  0  0  0
  138.8668  150.7183  141.4516 C   0  0  0  0  0  0  0  0  0  0  0  0
  138.3194  150.9395  142.2987 C   0  0  0  0  0  0  0  0  0  0  0  0
  136.9007  150.1342  142.2766 C   0  0  0  0  0  0  0  0  0  0  0  0
  136.0346  150.4104  143.3393 C   0  0  0  0  0  0  0  0  0  0  0  0
  137.4083  148.7821  138.9116 C   0  0  0  0  0  0  0  0  0  0  0  0
  136.4724  151.2971  144.2937 C   0  0  0  0  0  0  0  0  0  0  0  0
  136.0775  151.4989  145.5085 C   0  0  0  0  0  0  0  0  0  0  0  0
  136.5563  149.5242  141.0841 C   0  0  0  0  0  0  0  0  0  0  0  0
  136.3622  151.0164  146.5434 C   0  0  0  0  0  0  0  0  0  0  0  0
  135.2990  152.8451  145.6295 C   0  0  0  0  0  0  0  0  0  0  0  0
  138.2888  151.5914  143.7205 C   0  0  0  0  0  0  0  0  0  0  0  0
  1  2  1  0
  2  3  2  0
  2  4  1  0
  4  5  2  0
  5  6  1  0
  6  7  1  0
  3  8  1  0
  7  9  1  0
  9 10  1  0
  3 11  1  0
  6 11  2  0
 10 12  2  0
 10 13  1  0
  5 14  1  0
  9 14  1  0
M  END
$$$$

     RDKit          3D

 14 15  0  0  0  0  0  0  0  0999 V2000
  139.5348  150.8906  142.2305 C   0  0  0  0  0  0  0  0  0  0  0  0
  139.0139  150.3976  141.0574 C   0  0  0  0  0  0  0  0  0  0  0  0
  138.6965  150.9489  143.4028 C   0  0  0  0  0  0  0  0  0  0  0  0
  137.7130  149.9460  141.0427 C   0  0  0  0  0  0  0  0  0  0  0  0
  137.5183  150.9374  143.4785 C   0  0  0  0  0  0  0  0  0  0  0  0
  136.6733  151.1274  144.6812 C   0  0  0  0  0  0  0  0  0  0  0  0
  139.8472  150.3901  139.8637 C   0  0  0  0  0  0  0  0  0  0  0  0
  136.7200  150.2063  141.8846 C   0  0  0  0  0  0  0  0  0  0  0  0
  136.4930  150.6203  143.0434 C   0  0  0  0  0  0  0  0  0  0  0  0
  139.3609  150.4992  138.6511 C   0  0  0  0  0  0  0  0  0  0  0  0
  141.0593  150.6025  140.2414 O   0  0  0  0  0  0  0  0  0  0  0  0
  135.8666  151.8257  144.7378 C   0  0  0  0  0  0  0  0  0  0  0  0
  135.0890  152.5415  145.8501 C   0  0  0  0  0  0  0  0  0  0  0  0
  135.2245  151.3381  143.4958 C   0  0  0  0  0  0  0  0  0  0  0  0
  1  2  2  0
  1  3  1  0
  2  4  1  0
  3  5  2  0
  5  6  1  0
  2  7  1  0
  4  8  2  0
  5  9  1  0
  8  9  1  0
  7 10  1  0
  7 11  2  0
  6 12  2  0
 12 13  1  0
  9 14  1  0
 12 14  1  0
M  END
$$$$

     RDKit          3D

 14 15  0  0  0  0  0  0  0  0999 V2000
  140.3036  150.2148  139.4783 Cl  0  0  0  0  0  0  0  0  0  0  0  0
  138.6783  150.1860  140.5319 C   0  0  0  0  0  0  0  0  0  0  0  0
  137.6385  149.3831  140.0945 C   0  0  0  0  0  0  0  0  0  0  0  0
  138.7505  150.9487  141.6715 C   0  0  0  0  0  0  0  0  0  0  0  0
  136.5606  149.6034  140.7973 C   0  0  0  0  0  0  0  0  0  0  0  0
  135.2960  149.0163  140.1852 C   0  0  0  0  0  0  0  0  0  0  0  0
  136.5422  150.4642  141.8563 C   0  0  0  0  0  0  0  0  0  0  0  0
  135.3353  150.6737  142.7430 C   0  0  0  0  0  0  0  0  0  0  0  0
  135.7908  151.4836  143.9525 C   0  0  0  0  0  0  0  0  0  0  0  0
  135.1610  151.6622  145.0840 C   0  0  0  0  0  0  0  0  0  0  0  0
  137.8715  151.0865  142.3168 C   0  0  0  0  0  0  0  0  0  0  0  0
  137.0973  151.7273  143.9182 C   0  0  0  0  0  0  0  0  0  0  0  0
  134.1535  151.3912  145.5387 C   0  0  0  0  0  0  0  0  0  0  0  0
  135.9742  152.6848  146.0078 C   0  0  0  0  0  0  0  0  0  0  0  0
  1  2  1  0
  2  3  2  0
  2  4  1  0
  3  5  1  0
  5  6  1  0
  5  7  2  0
  7  8  1  0
  8  9  1  0
  9 10  1  0
  4 11  2  0
  7 11  1  0
  9 12  2  0
 11 12  1  0
 10 13  2  0
 10 14  1  0
M  END
$$$$

     RDKit          3D

 14 15  0  0  0  0  0  0  0  0999 V2000
  140.3036  150.2148  139.4783 Cl  0  0  0  0  0  0  0  0  0  0  0  0
  138.6783  150.1860  140.5319 C   0  0  0  0  0  0  0  0  0  0  0  0
  137.6385  149.3831  140.0945 C   0  0  0  0  0  0  0  0  0  0  0  0
  138.8668  150.7183  141.4516 C   0  0  0  0  0  0  0  0  0  0  0  0
  138.3194  150.9395  142.2987 C   0  0  0  0  0  0  0  0  0  0  0  0
  136.9007  150.1342  142.2766 C   0  0  0  0  0  0  0  0  0  0  0  0
  136.0346  150.4104  143.3393 C   0  0  0  0  0  0  0  0  0  0  0  0
  137.4083  148.7821  138.9116 C   0  0  0  0  0  0  0  0  0  0  0  0
  136.2303  150.8330  144.4742 C   0  0  0  0  0  0  0  0  0  0  0  0
  137.5716  151.4791  144.6535 C   0  0  0  0  0  0  0  0  0  0  0  0
  135.3288  151.1168  145.5435 C   0  0  0  0  0  0  0  0  0  0  0  0
  136.5492  149.5047  141.0961 C   0  0  0  0  0  0  0  0  0  0  0  0
  138.2643  151.5725  143.4363 N   0  0  0  0  0  0  0  0  0  0  0  0
  135.4278  151.5372  146.6287 C   0  0  0  0  0  0  0  0  0  0  0  0
  1  2  1  0
  2  3  2  0
  2  4  1  0
  4  5  2  0
  5  6  1  0
  6  7  1  0
  3  8  1  0
  7  9  2  0
  9 10  1  0
  9 11  1  0
  3 12  1  0
  6 12  2  0
  5 13  1  0
 10 13  2  0
 11 14  2  0
M  END
$$$$

     RDKit          3D

 14 15  0  0  0  0  0  0  0  0999 V2000
  139.3427  149.9935  140.5880 C   0  0  0  0  0  0  0  0  0  0  0  0
  138.9528  149.9224  139.3656 C   0  0  0  0  0  0  0  0  0  0  0  0
  138.6122  150.1102  141.6416 C   0  0  0  0  0  0  0  0  0  0  0  0
  137.1910  149.8704  141.8331 C   0  0  0  0  0  0  0  0  0  0  0  0
  136.4707  150.2696  142.9684 C   0  0  0  0  0  0  0  0  0  0  0  0
  135.1320  150.3575  143.2741 C   0  0  0  0  0  0  0  0  0  0  0  0
  134.7294  151.0382  144.5260 C   0  0  0  0  0  0  0  0  0  0  0  0
  137.5216  150.6555  144.0748 C   0  0  0  0  0  0  0  0  0  0  0  0
  135.5802  151.5165  145.2506 C   0  0  0  0  0  0  0  0  0  0  0  0
  135.1622  152.3275  146.4591 C   0  0  0  0  0  0  0  0  0  0  0  0
  138.8793  150.4004  143.7058 C   0  0  0  0  0  0  0  0  0  0  0  0
  139.4744  150.5231  142.6728 C   0  0  0  0  0  0  0  0  0  0  0  0
  136.9522  151.2731  145.1849 C   0  0  0  0  0  0  0  0  0  0  0  0
  140.6525  150.0657  140.7777 C   0  0  0  0  0  0  0  0  0  0  0  0
  1  2  2  0
  1  3  1  0
  3  4  1  0
  4  5  2  0
  5  6  1  0
  6  7  2  0
  5  8  1  0
  7  9  1  0
  9 10  1  0
  8 11  1  0
  3 12  1  0
 11 12  1  0
  8 13  1  0
  9 13  2  0
  1 14  1  0
M  END
$$$$

     RDKit          3D

 14 15  0  0  0  0  0  0  0  0999 V2000
  139.5348  150.8906  142.2305 C   0  0  0  0  0  0  0  0  0  0  0  0
  139.0139  150.3976  141.0574 C   0  0  0  0  0  0  0  0  0  0  0  0
  138.6965  150.9489  143.4028 C   0  0  0  0  0  0  0  0  0  0  0  0
  137.7130  149.9460  141.0427 C   0  0  0  0  0  0  0  0  0  0  0  0
  137.5183  150.9374  143.4785 C   0  0  0  0  0  0  0  0  0  0  0  0
  136.6733  151.1274  144.6812 C   0  0  0  0  0  0  0  0  0  0  0  0
  139.8472  150.3901  139.8637 C   0  0  0  0  0  0  0  0  0  0  0  0
  136.7200  150.2063  141.8846 C   0  0  0  0  0  0  0  0  0  0  0  0
  136.4930  150.6203  143.0434 C   0  0  0  0  0  0  0  0  0  0  0  0
  139.3609  150.4992  138.6511 C   0  0  0  0  0  0  0  0  0  0  0  0
  141.2279  150.2661  140.1137 C   0  0  0  0  0  0  0  0  0  0  0  0
  135.4319  151.4371  144.6105 C   0  0  0  0  0  0  0  0  0  0  0  0
  135.3673  151.0368  143.6786 N   0  0  0  0  0  0  0  0  0  0  0  0
  134.8359  151.9938  145.6664 O   0  0  0  0  0  0  0  0  0  0  0  0
  1  2  2  0
  1  3  1  0
  2  4  1  0
  3  5  2  0
  5  6  1  0
  2  7  1  0
  4  8  2  0
  5  9  1  0
  8  9  1  0
  7 10  1  0
  7 11  2  0
  6 12  1  0
  9 13  2  0
 12 13  1  0
 12 14  2  0
M  END
$$$$

     RDKit          3D

 14 15  0  0  0  0  0  0  0  0999 V2000
  139.5348  150.8906  142.2305 C   0  0  0  0  0  0  0  0  0  0  0  0
  139.0139  150.3976  141.0574 C   0  0  0  0  0  0  0  0  0  0  0  0
  138.6965  150.9489  143.4028 C   0  0  0  0  0  0  0  0  0  0  0  0
  137.7130  149.9460  141.0427 C   0  0  0  0  0  0  0  0  0  0  0  0
  137.5183  150.9374  143.4785 C   0  0  0  0  0  0  0  0  0  0  0  0
  136.6733  151.1274  144.6812 C   0  0  0  0  0  0  0  0  0  0  0  0
  139.8472  150.3901  139.8637 C   0  0  0  0  0  0  0  0  0  0  0  0
  136.7200  150.2063  141.8846 C   0  0  0  0  0  0  0  0  0  0  0  0
  136.4930  150.6203  143.0434 C   0  0  0  0  0  0  0  0  0  0  0  0
  139.3609  150.4992  138.6511 C   0  0  0  0  0  0  0  0  0  0  0  0
  141.2279  150.2661  140.1137 C   0  0  0  0  0  0  0  0  0  0  0  0
  135.4319  151.4371  144.6105 C   0  0  0  0  0  0  0  0  0  0  0  0
  135.2281  150.8914  143.5535 N   0  0  0  0  0  0  0  0  0  0  0  0
  134.5412  152.0181  145.4012 O   0  0  0  0  0  0  0  0  0  0  0  0
  1  2  2  0
  1  3  1  0
  2  4  1  0
  3  5  2  0
  5  6  1  0
  2  7  1  0
  4  8  2  0
  5  9  1  0
  8  9  1  0
  7 10  1  0
  7 11  2  0
  6 12  1  0
  9 13  1  0
 12 13  1  0
 12 14  2  0
M  END
$$$$

     RDKit          3D

 14 15  0  0  0  0  0  0  0  0999 V2000
  139.5348  150.8906  142.2305 C   0  0  0  0  0  0  0  0  0  0  0  0
  139.0139  150.3976  141.0574 C   0  0  0  0  0  0  0  0  0  0  0  0
  138.6965  150.9489  143.4028 C   0  0  0  0  0  0  0  0  0  0  0  0
  137.7130  149.9460  141.0427 C   0  0  0  0  0  0  0  0  0  0  0  0
  137.5183  150.9374  143.4785 C   0  0  0  0  0  0  0  0  0  0  0  0
  136.6733  151.1274  144.6812 C   0  0  0  0  0  0  0  0  0  0  0  0
  139.8472  150.3901  139.8637 C   0  0  0  0  0  0  0  0  0  0  0  0
  136.7200  150.2063  141.8846 C   0  0  0  0  0  0  0  0  0  0  0  0
  136.4930  150.6203  143.0434 C   0  0  0  0  0  0  0  0  0  0  0  0
  135.8664  151.8203  144.7141 C   0  0  0  0  0  0  0  0  0  0  0  0
  135.0874  152.5519  145.7463 C   0  0  0  0  0  0  0  0  0  0  0  0
  135.4018  150.9737  143.5348 C   0  0  0  0  0  0  0  0  0  0  0  0
  134.8609  151.9878  146.9777 C   0  0  0  0  0  0  0  0  0  0  0  0
  139.3743  150.4949  138.6489 C   0  0  0  0  0  0  0  0  0  0  0  0
  1  2  2  0
  1  3  1  0
  2  4  1  0
  3  5  2  0
  5  6  1  0
  2  7  1  0
  4  8  2  0
  5  9  1  0
  8  9  1  0
  6 10  1  0
 10 11  1  0
  9 12  1  0
 10 12  1  0
 11 13  1  0
  7 14  2  0
M  END
$$$$

     RDKit          3D

 14 15  0  0  0  0  0  0  0  0999 V2000
  138.9705  151.3124  142.5681 C   0  0  0  0  0  0  0  0  0  0  0  0
  138.6057  152.0894  143.2653 C   0  0  0  0  0  0  0  0  0  0  0  0
  137.6600  151.8349  144.0467 C   0  0  0  0  0  0  0  0  0  0  0  0
  139.9939  151.3511  141.4314 C   0  0  0  0  0  0  0  0  0  0  0  0
  137.4795  150.6675  144.8972 C   0  0  0  0  0  0  0  0  0  0  0  0
  139.6568  150.7243  140.2644 C   0  0  0  0  0  0  0  0  0  0  0  0
  138.5004  150.0428  140.1974 C   0  0  0  0  0  0  0  0  0  0  0  0
  137.5686  149.8234  141.3807 C   0  0  0  0  0  0  0  0  0  0  0  0
  140.5888  150.6785  139.1831 C   0  0  0  0  0  0  0  0  0  0  0  0
  138.2287  149.6069  138.9174 C   0  0  0  0  0  0  0  0  0  0  0  0
  140.1523  150.1543  138.0336 C   0  0  0  0  0  0  0  0  0  0  0  0
  138.0463  150.1769  142.2396 C   0  0  0  0  0  0  0  0  0  0  0  0
  139.1277  149.6429  137.9365 C   0  0  0  0  0  0  0  0  0  0  0  0
  136.9340  150.4993  146.1322 C   0  0  0  0  0  0  0  0  0  0  0  0
  1  2  2  3
  2  3  1  0
  1  4  1  0
  3  5  2  3
  4  6  2  0
  6  7  1  0
  7  8  1  0
  6  9  1  0
  7 10  2  0
  9 11  1  0
  1 12  1  0
  8 12  2  0
 10 13  1  0
 11 13  2  0
  5 14  1  0
M  END
$$$$

     RDKit          3D

 14 15  0  0  0  0  0  0  0  0999 V2000
  139.3427  149.9935  140.5880 C   0  0  0  0  0  0  0  0  0  0  0  0
  138.9528  149.9224  139.3656 C   0  0  0  0  0  0  0  0  0  0  0  0
  138.6122  150.1102  141.6416 C   0  0  0  0  0  0  0  0  0  0  0  0
  137.1910  149.8704  141.8331 C   0  0  0  0  0  0  0  0  0  0  0  0
  136.5134  149.7658  140.5812 C   0  0  0  0  0  0  0  0  0  0  0  0
  139.1788  150.4012  143.1353 C   0  0  0  0  0  0  0  0  0  0  0  0
  138.2249  150.9731  144.0852 C   0  0  0  0  0  0  0  0  0  0  0  0
  139.6664  149.8788  138.1669 C   0  0  0  0  0  0  0  0  0  0  0  0
  136.6533  150.3823  143.0155 C   0  0  0  0  0  0  0  0  0  0  0  0
  137.4059  149.8333  139.3614 C   0  0  0  0  0  0  0  0  0  0  0  0
  137.0396  150.7578  144.0900 C   0  0  0  0  0  0  0  0  0  0  0  0
  136.1418  151.0531  145.3423 C   0  0  0  0  0  0  0  0  0  0  0  0
  135.2159  152.0985  145.1651 C   0  0  0  0  0  0  0  0  0  0  0  0
  135.4884  153.1979  144.9105 C   0  0  0  0  0  0  0  0  0  0  0  0
  1  2  2  0
  1  3  1  0
  3  4  1  0
  4  5  2  0
  3  6  1  0
  6  7  2  0
  2  8  1  0
  4  9  1  0
  2 10  1  0
  5 10  1  0
  7 11  1  0
  9 11  2  0
 11 12  1  0
 12 13  1  0
 13 14  2  0
M  END
$$$$

     RDKit          3D

 14 15  0  0  0  0  0  0  0  0999 V2000
  138.9705  151.3124  142.5681 C   0  0  0  0  0  0  0  0  0  0  0  0
  138.6057  152.0894  143.2653 C   0  0  0  0  0  0  0  0  0  0  0  0
  137.6600  151.8349  144.0467 C   0  0  0  0  0  0  0  0  0  0  0  0
  139.9939  151.3511  141.4314 C   0  0  0  0  0  0  0  0  0  0  0  0
  137.4795  150.6675  144.8972 C   0  0  0  0  0  0  0  0  0  0  0  0
  139.6568  150.7243  140.2644 C   0  0  0  0  0  0  0  0  0  0  0  0
  138.5004  150.0428  140.1974 C   0  0  0  0  0  0  0  0  0  0  0  0
  137.5686  149.8234  141.3807 C   0  0  0  0  0  0  0  0  0  0  0  0
  140.5888  150.6785  139.1831 C   0  0  0  0  0  0  0  0  0  0  0  0
  138.0055  150.3807  142.5466 C   0  0  0  0  0  0  0  0  0  0  0  0
  137.0383  150.4395  146.0865 C   0  0  0  0  0  0  0  0  0  0  0  0
  137.4524  149.7628  143.5973 N   0  0  0  0  0  0  0  0  0  0  0  0
  138.1955  149.6228  138.9239 C   0  0  0  0  0  0  0  0  0  0  0  0
  136.9464  149.0913  138.6645 C   0  0  0  0  0  0  0  0  0  0  0  0
  1  2  2  0
  2  3  1  0
  1  4  1  0
  3  5  2  0
  4  6  2  0
  6  7  1  0
  7  8  1  0
  6  9  1  0
  1 10  1  0
  8 10  2  0
  5 11  1  0
  5 12  1  0
 10 12  1  0
  7 13  2  3
 13 14  1  0
M  END
$$$$

     RDKit          3D

 14 15  0  0  0  0  0  0  0  0999 V2000
  140.3036  150.2148  139.4783 Cl  0  0  0  0  0  0  0  0  0  0  0  0
  138.6783  150.1860  140.5319 C   0  0  0  0  0  0  0  0  0  0  0  0
  137.6385  149.3831  140.0945 C   0  0  0  0  0  0  0  0  0  0  0  0
  138.7505  150.9487  141.6715 C   0  0  0  0  0  0  0  0  0  0  0  0
  136.5606  149.6034  140.7973 C   0  0  0  0  0  0  0  0  0  0  0  0
  136.3933  150.3970  141.9259 C   0  0  0  0  0  0  0  0  0  0  0  0
  135.1767  150.5746  142.7425 C   0  0  0  0  0  0  0  0  0  0  0  0
  135.6228  151.2741  143.9969 C   0  0  0  0  0  0  0  0  0  0  0  0
  134.8095  151.6415  145.0435 C   0  0  0  0  0  0  0  0  0  0  0  0
  133.6651  151.4000  145.3589 C   0  0  0  0  0  0  0  0  0  0  0  0
  136.9737  151.7929  144.2121 C   0  0  0  0  0  0  0  0  0  0  0  0
  135.6608  152.6149  145.8554 C   0  0  0  0  0  0  0  0  0  0  0  0
  137.0598  152.7207  145.1221 C   0  0  0  0  0  0  0  0  0  0  0  0
  137.8759  151.4881  143.1743 C   0  0  0  0  0  0  0  0  0  0  0  0
  1  2  1  0
  2  3  2  0
  2  4  1  0
  3  5  1  0
  5  6  2  0
  6  7  1  0
  7  8  2  0
  8  9  1  0
  9 10  2  0
  8 11  1  0
  9 12  1  0
 11 13  1  0
 12 13  1  0
  4 14  1  0
 11 14  2  0
M  END
$$$$

     RDKit          3D

 14 15  0  0  0  0  0  0  0  0999 V2000
  140.3036  150.2148  139.4783 Cl  0  0  0  0  0  0  0  0  0  0  0  0
  138.6783  150.1860  140.5319 C   0  0  0  0  0  0  0  0  0  0  0  0
  137.6385  149.3831  140.0945 C   0  0  0  0  0  0  0  0  0  0  0  0
  138.8668  150.7183  141.4516 C   0  0  0  0  0  0  0  0  0  0  0  0
  138.3194  150.9395  142.2987 C   0  0  0  0  0  0  0  0  0  0  0  0
  136.9007  150.1342  142.2766 C   0  0  0  0  0  0  0  0  0  0  0  0
  136.0346  150.4104  143.3393 C   0  0  0  0  0  0  0  0  0  0  0  0
  137.4083  148.7821  138.9116 C   0  0  0  0  0  0  0  0  0  0  0  0
  136.4724  151.2971  144.2937 C   0  0  0  0  0  0  0  0  0  0  0  0
  136.0775  151.4989  145.5085 C   0  0  0  0  0  0  0  0  0  0  0  0
  136.5563  149.5242  141.0841 C   0  0  0  0  0  0  0  0  0  0  0  0
  136.3622  151.0164  146.5434 C   0  0  0  0  0  0  0  0  0  0  0  0
  135.2990  152.8451  145.6295 C   0  0  0  0  0  0  0  0  0  0  0  0
  138.3394  151.6667  143.7091 S   0  0  0  0  0  0  0  0  0  0  0  0
  1  2  1  0
  2  3  2  0
  2  4  1  0
  4  5  2  0
  5  6  1  0
  6  7  1  0
  3  8  1  0
  7  9  1  0
  9 10  1  0
  3 11  1  0
  6 11  2  0
 10 12  2  0
 10 13  1  0
  5 14  1  0
  9 14  2  0
M  END
$$$$

     RDKit          3D

 14 15  0  0  0  0  0  0  0  0999 V2000
  139.5348  150.8906  142.2305 C   0  0  0  0  0  0  0  0  0  0  0  0
  139.0139  150.3976  141.0574 C   0  0  0  0  0  0  0  0  0  0  0  0
  138.6965  150.9489  143.4028 C   0  0  0  0  0  0  0  0  0  0  0  0
  137.7130  149.9460  141.0427 C   0  0  0  0  0  0  0  0  0  0  0  0
  137.5183  150.9374  143.4785 C   0  0  0  0  0  0  0  0  0  0  0  0
  136.6733  151.1274  144.6812 C   0  0  0  0  0  0  0  0  0  0  0  0
  139.8472  150.3901  139.8637 C   0  0  0  0  0  0  0  0  0  0  0  0
  136.7200  150.2063  141.8846 C   0  0  0  0  0  0  0  0  0  0  0  0
  136.4930  150.6203  143.0434 C   0  0  0  0  0  0  0  0  0  0  0  0
  141.2312  150.2837  140.0282 C   0  0  0  0  0  0  0  0  0  0  0  0
  135.4331  151.4236  144.6189 C   0  0  0  0  0  0  0  0  0  0  0  0
  135.2316  150.8934  143.5678 N   0  0  0  0  0  0  0  0  0  0  0  0
  134.5420  151.9999  145.4178 O   0  0  0  0  0  0  0  0  0  0  0  0
  139.4036  150.5169  138.8458 O   0  0  0  0  0  0  0  0  0  0  0  0
  1  2  2  0
  1  3  1  0
  2  4  1  0
  3  5  2  0
  5  6  1  0
  2  7  1  0
  4  8  2  0
  5  9  1  0
  8  9  1  0
  7 10  1  0
  6 11  1  0
  9 12  1  0
 11 12  1  0
 11 13  2  0
  7 14  2  0
M  END
$$$$

     RDKit          3D

 14 15  0  0  0  0  0  0  0  0999 V2000
  139.5348  150.8906  142.2305 C   0  0  0  0  0  0  0  0  0  0  0  0
  139.0139  150.3976  141.0574 C   0  0  0  0  0  0  0  0  0  0  0  0
  138.6965  150.9489  143.4028 C   0  0  0  0  0  0  0  0  0  0  0  0
  137.7130  149.9460  141.0427 C   0  0  0  0  0  0  0  0  0  0  0  0
  137.5183  150.9374  143.4785 C   0  0  0  0  0  0  0  0  0  0  0  0
  136.6733  151.1274  144.6812 C   0  0  0  0  0  0  0  0  0  0  0  0
  139.8472  150.3901  139.8637 C   0  0  0  0  0  0  0  0  0  0  0  0
  136.7200  150.2063  141.8846 C   0  0  0  0  0  0  0  0  0  0  0  0
  136.4930  150.6203  143.0434 C   0  0  0  0  0  0  0  0  0  0  0  0
  135.8664  151.8203  144.7141 C   0  0  0  0  0  0  0  0  0  0  0  0
  135.0712  152.5387  145.8229 C   0  0  0  0  0  0  0  0  0  0  0  0
  141.2338  150.2775  140.0270 C   0  0  0  0  0  0  0  0  0  0  0  0
  135.2341  151.3294  143.4635 C   0  0  0  0  0  0  0  0  0  0  0  0
  139.3503  150.4787  138.6471 C   0  0  0  0  0  0  0  0  0  0  0  0
  1  2  2  0
  1  3  1  0
  2  4  1  0
  3  5  2  0
  5  6  1  0
  2  7  1  0
  4  8  2  0
  5  9  1  0
  8  9  1  0
  6 10  2  0
 10 11  1  0
  7 12  1  0
  9 13  1  0
 10 13  1  0
  7 14  2  0
M  END
$$$$

     RDKit          3D

 14 15  0  0  0  0  0  0  0  0999 V2000
  138.7090  151.1469  142.6269 C   0  0  0  0  0  0  0  0  0  0  0  0
  138.5260  151.9370  143.5114 C   0  0  0  0  0  0  0  0  0  0  0  0
  137.3819  151.6579  144.3963 C   0  0  0  0  0  0  0  0  0  0  0  0
  139.7051  151.1184  141.6077 C   0  0  0  0  0  0  0  0  0  0  0  0
  136.7557  152.5772  145.3074 C   0  0  0  0  0  0  0  0  0  0  0  0
  139.6288  150.4580  140.3315 C   0  0  0  0  0  0  0  0  0  0  0  0
  138.4571  149.6004  140.4454 C   0  0  0  0  0  0  0  0  0  0  0  0
  137.8336  150.0445  142.3293 C   0  0  0  0  0  0  0  0  0  0  0  0
  140.4666  150.5862  139.2787 C   0  0  0  0  0  0  0  0  0  0  0  0
  136.9038  150.0724  143.5173 C   0  0  0  0  0  0  0  0  0  0  0  0
  136.7056  150.8155  144.5453 C   0  0  0  0  0  0  0  0  0  0  0  0
  135.6021  152.8020  145.9518 C   0  0  0  0  0  0  0  0  0  0  0  0
  138.2248  148.9876  139.1450 C   0  0  0  0  0  0  0  0  0  0  0  0
  137.6226  149.3512  141.3343 N   0  0  0  0  0  0  0  0  0  0  0  0
  1  2  1  0
  2  3  2  0
  1  4  1  0
  3  5  1  0
  4  6  2  0
  6  7  1  0
  1  8  2  0
  6  9  1  0
  8 10  1  0
  3 11  1  0
 10 11  2  0
  5 12  2  0
  7 13  1  0
  7 14  2  0
  8 14  1  0
M  END
$$$$

     RDKit          3D

 14 15  0  0  0  0  0  0  0  0999 V2000
  138.9705  151.3124  142.5681 C   0  0  0  0  0  0  0  0  0  0  0  0
  138.6057  152.0894  143.2653 C   0  0  0  0  0  0  0  0  0  0  0  0
  137.5209  151.8314  144.2019 C   0  0  0  0  0  0  0  0  0  0  0  0
  136.5811  152.7823  144.6505 C   0  0  0  0  0  0  0  0  0  0  0  0
  139.7956  151.3595  141.3741 C   0  0  0  0  0  0  0  0  0  0  0  0
  135.9804  152.8193  145.6528 C   0  0  0  0  0  0  0  0  0  0  0  0
  139.5360  150.6466  140.2953 C   0  0  0  0  0  0  0  0  0  0  0  0
  136.0633  151.5366  146.3570 C   0  0  0  0  0  0  0  0  0  0  0  0
  138.3949  149.8648  140.3621 C   0  0  0  0  0  0  0  0  0  0  0  0
  137.2544  150.6517  144.9179 C   0  0  0  0  0  0  0  0  0  0  0  0
  135.2489  151.5097  147.6255 C   0  0  0  0  0  0  0  0  0  0  0  0
  138.3324  150.0602  142.3870 C   0  0  0  0  0  0  0  0  0  0  0  0
  137.8560  149.3932  141.4839 C   0  0  0  0  0  0  0  0  0  0  0  0
  136.6587  150.2806  145.8077 C   0  0  0  0  0  0  0  0  0  0  0  0
  1  2  2  3
  2  3  1  0
  3  4  1  0
  1  5  1  0
  4  6  2  0
  5  7  2  0
  6  8  1  0
  7  9  1  0
  3 10  2  0
  8 11  1  0
  1 12  1  0
  9 13  1  0
 12 13  1  0
  8 14  2  0
 10 14  1  0
M  END
$$$$

     RDKit          3D

 14 15  0  0  0  0  0  0  0  0999 V2000
  139.5348  150.8906  142.2305 C   0  0  0  0  0  0  0  0  0  0  0  0
  139.0139  150.3976  141.0574 C   0  0  0  0  0  0  0  0  0  0  0  0
  138.6965  150.9489  143.4028 C   0  0  0  0  0  0  0  0  0  0  0  0
  137.7130  149.9460  141.0427 C   0  0  0  0  0  0  0  0  0  0  0  0
  137.5183  150.9374  143.4785 C   0  0  0  0  0  0  0  0  0  0  0  0
  136.6733  151.1274  144.6812 C   0  0  0  0  0  0  0  0  0  0  0  0
  139.8472  150.3901  139.8637 C   0  0  0  0  0  0  0  0  0  0  0  0
  136.7200  150.2063  141.8846 C   0  0  0  0  0  0  0  0  0  0  0  0
  136.4930  150.6203  143.0434 C   0  0  0  0  0  0  0  0  0  0  0  0
  135.8664  151.8203  144.7141 C   0  0  0  0  0  0  0  0  0  0  0  0
  135.0874  152.5519  145.7463 C   0  0  0  0  0  0  0  0  0  0  0  0
  141.2321  150.2599  140.0266 C   0  0  0  0  0  0  0  0  0  0  0  0
  139.4149  150.5374  138.8443 O   0  0  0  0  0  0  0  0  0  0  0  0
  135.3039  151.0019  143.5951 C   0  0  0  0  0  0  0  0  0  0  0  0
  1  2  2  0
  1  3  1  0
  2  4  1  0
  3  5  2  0
  5  6  1  0
  2  7  1  0
  4  8  2  0
  5  9  1  0
  8  9  1  0
  6 10  1  0
 10 11  1  0
  7 12  1  0
  7 13  2  0
  9 14  2  0
 10 14  1  0
M  END
$$$$

     RDKit          3D

 14 15  0  0  0  0  0  0  0  0999 V2000
  139.3427  149.9935  140.5880 C   0  0  0  0  0  0  0  0  0  0  0  0
  138.9528  149.9224  139.3656 C   0  0  0  0  0  0  0  0  0  0  0  0
  138.6122  150.1102  141.6416 C   0  0  0  0  0  0  0  0  0  0  0  0
  137.1910  149.8704  141.8331 C   0  0  0  0  0  0  0  0  0  0  0  0
  136.5134  149.7658  140.5812 C   0  0  0  0  0  0  0  0  0  0  0  0
  139.1788  150.4012  143.1353 C   0  0  0  0  0  0  0  0  0  0  0  0
  138.2249  150.9731  144.0852 C   0  0  0  0  0  0  0  0  0  0  0  0
  139.6664  149.8788  138.1669 C   0  0  0  0  0  0  0  0  0  0  0  0
  136.6533  150.3823  143.0155 C   0  0  0  0  0  0  0  0  0  0  0  0
  137.4059  149.8333  139.3614 C   0  0  0  0  0  0  0  0  0  0  0  0
  137.0482  150.7664  144.0985 C   0  0  0  0  0  0  0  0  0  0  0  0
  136.2496  151.4276  145.2710 C   0  0  0  0  0  0  0  0  0  0  0  0
  136.5832  151.5355  146.4758 C   0  0  0  0  0  0  0  0  0  0  0  0
  135.2995  152.1595  144.8469 C   0  0  0  0  0  0  0  0  0  0  0  0
  1  2  2  0
  1  3  1  0
  3  4  1  0
  4  5  2  0
  3  6  1  0
  6  7  2  0
  2  8  1  0
  4  9  1  0
  2 10  1  0
  5 10  1  0
  7 11  1  0
  9 11  2  0
 11 12  1  0
 12 13  1  0
 12 14  2  0
M  END
$$$$

     RDKit          3D

 14 15  0  0  0  0  0  0  0  0999 V2000
  140.3036  150.2148  139.4783 Cl  0  0  0  0  0  0  0  0  0  0  0  0
  138.6783  150.1860  140.5319 C   0  0  0  0  0  0  0  0  0  0  0  0
  137.6385  149.3831  140.0945 C   0  0  0  0  0  0  0  0  0  0  0  0
  138.8668  150.7183  141.4516 C   0  0  0  0  0  0  0  0  0  0  0  0
  138.3194  150.9395  142.2987 C   0  0  0  0  0  0  0  0  0  0  0  0
  136.9007  150.1342  142.2766 C   0  0  0  0  0  0  0  0  0  0  0  0
  136.0346  150.4104  143.3393 C   0  0  0  0  0  0  0  0  0  0  0  0
  137.4083  148.7821  138.9116 C   0  0  0  0  0  0  0  0  0  0  0  0
  136.4724  151.2971  144.2937 C   0  0  0  0  0  0  0  0  0  0  0  0
  136.0775  151.4989  145.5085 C   0  0  0  0  0  0  0  0  0  0  0  0
  137.7520  151.7422  143.8067 C   0  0  0  0  0  0  0  0  0  0  0  0
  136.5938  149.5168  141.0546 C   0  0  0  0  0  0  0  0  0  0  0  0
  136.5909  151.5155  146.6307 C   0  0  0  0  0  0  0  0  0  0  0  0
  134.7113  151.8769  145.4172 C   0  0  0  0  0  0  0  0  0  0  0  0
  1  2  1  0
  2  3  2  0
  2  4  1  0
  4  5  2  0
  5  6  1  0
  6  7  1  0
  3  8  1  0
  7  9  1  0
  9 10  1  0
  5 11  1  0
  9 11  2  0
  3 12  1  0
  6 12  2  0
 10 13  2  0
 10 14  1  0
M  END
$$$$

     RDKit          3D

 14 15  0  0  0  0  0  0  0  0999 V2000
  140.3036  150.2148  139.4783 Cl  0  0  0  0  0  0  0  0  0  0  0  0
  138.6783  150.1860  140.5319 C   0  0  0  0  0  0  0  0  0  0  0  0
  137.6385  149.3831  140.0945 C   0  0  0  0  0  0  0  0  0  0  0  0
  138.7733  150.9283  141.6507 C   0  0  0  0  0  0  0  0  0  0  0  0
  137.6844  150.8835  142.5421 C   0  0  0  0  0  0  0  0  0  0  0  0
  137.8374  151.5218  143.8915 C   0  0  0  0  0  0  0  0  0  0  0  0
  136.6920  151.6926  144.6953 C   0  0  0  0  0  0  0  0  0  0  0  0
  137.6542  148.8478  138.8366 C   0  0  0  0  0  0  0  0  0  0  0  0
  135.5431  151.0559  144.2075 C   0  0  0  0  0  0  0  0  0  0  0  0
  136.5025  149.6294  140.8401 C   0  0  0  0  0  0  0  0  0  0  0  0
  136.5389  150.2998  142.1149 C   0  0  0  0  0  0  0  0  0  0  0  0
  136.4077  152.3802  145.9143 C   0  0  0  0  0  0  0  0  0  0  0  0
  135.3071  150.4327  142.7001 C   0  0  0  0  0  0  0  0  0  0  0  0
  135.3299  152.3054  146.6138 C   0  0  0  0  0  0  0  0  0  0  0  0
  1  2  1  0
  2  3  1  0
  2  4  2  0
  4  5  1  0
  5  6  1  0
  6  7  2  0
  3  8  1  0
  7  9  1  0
  3 10  2  0
  5 11  2  0
 10 11  1  0
  7 12  1  0
  9 13  2  0
 11 13  1  0
 12 14  2  0
M  END
$$$$

     RDKit          3D

 14 15  0  0  0  0  0  0  0  0999 V2000
  140.3036  150.2148  139.4783 Cl  0  0  0  0  0  0  0  0  0  0  0  0
  138.6783  150.1860  140.5319 C   0  0  0  0  0  0  0  0  0  0  0  0
  137.6385  149.3831  140.0945 C   0  0  0  0  0  0  0  0  0  0  0  0
  138.7505  150.9487  141.6715 C   0  0  0  0  0  0  0  0  0  0  0  0
  136.5606  149.6034  140.7973 C   0  0  0  0  0  0  0  0  0  0  0  0
  135.2960  149.0163  140.1852 C   0  0  0  0  0  0  0  0  0  0  0  0
  136.5422  150.4642  141.8563 C   0  0  0  0  0  0  0  0  0  0  0  0
  135.3353  150.6737  142.7430 C   0  0  0  0  0  0  0  0  0  0  0  0
  135.7908  151.4836  143.9525 C   0  0  0  0  0  0  0  0  0  0  0  0
  135.1610  151.6622  145.0840 C   0  0  0  0  0  0  0  0  0  0  0  0
  137.8715  151.0865  142.3168 C   0  0  0  0  0  0  0  0  0  0  0  0
  134.3363  151.0688  145.7145 C   0  0  0  0  0  0  0  0  0  0  0  0
  135.7056  152.9795  145.7888 C   0  0  0  0  0  0  0  0  0  0  0  0
  137.6774  151.8983  143.7632 S   0  0  0  0  0  0  0  0  0  0  0  0
  1  2  1  0
  2  3  2  0
  2  4  1  0
  3  5  1  0
  5  6  1  0
  5  7  2  0
  7  8  1  0
  8  9  1  0
  9 10  1  0
  4 11  2  0
  7 11  1  0
 10 12  2  0
 10 13  1  0
  9 14  2  0
 11 14  1  0
M  END
$$$$

     RDKit          3D

 14 15  0  0  0  0  0  0  0  0999 V2000
  139.5348  150.8906  142.2305 C   0  0  0  0  0  0  0  0  0  0  0  0
  139.0139  150.3976  141.0574 C   0  0  0  0  0  0  0  0  0  0  0  0
  138.6965  150.9489  143.4028 C   0  0  0  0  0  0  0  0  0  0  0  0
  137.7130  149.9460  141.0427 C   0  0  0  0  0  0  0  0  0  0  0  0
  137.5183  150.9374  143.4785 C   0  0  0  0  0  0  0  0  0  0  0  0
  136.6733  151.1274  144.6812 C   0  0  0  0  0  0  0  0  0  0  0  0
  139.8472  150.3901  139.8637 C   0  0  0  0  0  0  0  0  0  0  0  0
  136.7200  150.2063  141.8846 C   0  0  0  0  0  0  0  0  0  0  0  0
  136.4930  150.6203  143.0434 C   0  0  0  0  0  0  0  0  0  0  0  0
  141.2312  150.2837  140.0282 C   0  0  0  0  0  0  0  0  0  0  0  0
  135.4331  151.4236  144.6189 C   0  0  0  0  0  0  0  0  0  0  0  0
  139.4093  150.5415  138.8486 O   0  0  0  0  0  0  0  0  0  0  0  0
  134.4724  152.0228  145.6104 C   0  0  0  0  0  0  0  0  0  0  0  0
  135.3733  150.9862  143.6496 N   0  0  0  0  0  0  0  0  0  0  0  0
  1  2  2  0
  1  3  1  0
  2  4  1  0
  3  5  2  0
  5  6  1  0
  2  7  1  0
  4  8  2  0
  5  9  1  0
  8  9  1  0
  7 10  1  0
  6 11  1  0
  7 12  2  0
 11 13  1  0
  9 14  1  0
 11 14  2  0
M  END
$$$$

     RDKit          3D

 14 15  0  0  0  0  0  0  0  0999 V2000
  140.3036  150.2148  139.4783 Cl  0  0  0  0  0  0  0  0  0  0  0  0
  138.6783  150.1860  140.5319 C   0  0  0  0  0  0  0  0  0  0  0  0
  137.6385  149.3831  140.0945 C   0  0  0  0  0  0  0  0  0  0  0  0
  138.8668  150.7183  141.4516 C   0  0  0  0  0  0  0  0  0  0  0  0
  138.3194  150.9395  142.2987 C   0  0  0  0  0  0  0  0  0  0  0  0
  136.9007  150.1342  142.2766 C   0  0  0  0  0  0  0  0  0  0  0  0
  136.0346  150.4104  143.3393 C   0  0  0  0  0  0  0  0  0  0  0  0
  137.4083  148.7821  138.9116 C   0  0  0  0  0  0  0  0  0  0  0  0
  136.2303  150.8330  144.4742 C   0  0  0  0  0  0  0  0  0  0  0  0
  137.5716  151.4791  144.6535 C   0  0  0  0  0  0  0  0  0  0  0  0
  135.3288  151.1168  145.5435 C   0  0  0  0  0  0  0  0  0  0  0  0
  136.5492  149.5047  141.0961 C   0  0  0  0  0  0  0  0  0  0  0  0
  138.5053  151.5951  143.6379 C   0  0  0  0  0  0  0  0  0  0  0  0
  135.3570  151.4742  146.5970 C   0  0  0  0  0  0  0  0  0  0  0  0
  1  2  1  0
  2  3  2  0
  2  4  1  0
  4  5  2  0
  5  6  1  0
  6  7  1  0
  3  8  1  0
  7  9  2  0
  9 10  1  0
  9 11  1  0
  3 12  1  0
  6 12  2  0
  5 13  1  0
 10 13  2  0
 11 14  2  0
M  END
$$$$

     RDKit          3D

 14 15  0  0  0  0  0  0  0  0999 V2000
  140.3036  150.2148  139.4783 Cl  0  0  0  0  0  0  0  0  0  0  0  0
  138.6783  150.1860  140.5319 C   0  0  0  0  0  0  0  0  0  0  0  0
  137.6385  149.3831  140.0945 C   0  0  0  0  0  0  0  0  0  0  0  0
  139.0332  150.8824  141.6179 C   0  0  0  0  0  0  0  0  0  0  0  0
  136.6575  149.6448  140.8215 C   0  0  0  0  0  0  0  0  0  0  0  0
  135.2931  149.1275  140.2769 C   0  0  0  0  0  0  0  0  0  0  0  0
  136.7024  150.5097  141.8835 C   0  0  0  0  0  0  0  0  0  0  0  0
  135.5279  150.7540  142.7997 C   0  0  0  0  0  0  0  0  0  0  0  0
  136.0533  151.3559  144.1204 C   0  0  0  0  0  0  0  0  0  0  0  0
  138.0052  151.0510  142.3830 C   0  0  0  0  0  0  0  0  0  0  0  0
  135.0869  151.6683  145.1489 C   0  0  0  0  0  0  0  0  0  0  0  0
  137.4671  151.6286  144.2928 C   0  0  0  0  0  0  0  0  0  0  0  0
  138.1615  151.6676  143.4085 N   0  0  0  0  0  0  0  0  0  0  0  0
  137.4277  152.3506  145.5416 O   0  0  0  0  0  0  0  0  0  0  0  0
  1  2  1  0
  2  3  2  0
  2  4  1  0
  3  5  1  0
  5  6  1  0
  5  7  2  0
  7  8  1  0
  8  9  2  0
  4 10  2  0
  7 10  1  0
  9 11  1  0
  9 12  1  0
 10 13  1  0
 12 13  1  0
 12 14  2  0
M  END
$$$$
