
     RDKit          3D

  9  9  0  0  0  0  0  0  0  0999 V2000
  140.3038  150.2150  139.4785 Cl  0  0  0  0  0  0  0  0  0  0  0  0
  138.6786  150.1874  140.5317 C   0  0  0  0  0  0  0  0  0  0  0  0
  137.6385  149.3840  140.0946 C   0  0  0  0  0  0  0  0  0  0  0  0
  139.2404  150.7160  141.5759 C   0  0  0  0  0  0  0  0  0  0  0  0
  138.3592  151.0512  142.3776 C   0  0  0  0  0  0  0  0  0  0  0  0
  136.5132  149.6320  140.9989 C   0  0  0  0  0  0  0  0  0  0  0  0
  138.6485  151.8145  143.7097 C   0  0  0  0  0  0  0  0  0  0  0  0
  135.2230  149.4126  140.8574 C   0  0  0  0  0  0  0  0  0  0  0  0
  136.9558  150.5500  142.4468 C   0  0  0  0  0  0  0  0  0  0  0  0
  1  2  1  0
  2  3  1  0
  2  4  2  0
  4  5  1  0
  3  6  2  0
  5  7  1  0
  6  8  1  0
  5  9  2  0
  6  9  1  0
M  END
$$$$

     RDKit          3D

  9  9  0  0  0  0  0  0  0  0999 V2000
  140.3038  150.2150  139.4785 Cl  0  0  0  0  0  0  0  0  0  0  0  0
  138.6786  150.1874  140.5317 C   0  0  0  0  0  0  0  0  0  0  0  0
  137.6385  149.3840  140.0946 C   0  0  0  0  0  0  0  0  0  0  0  0
  138.7732  150.9300  141.6509 C   0  0  0  0  0  0  0  0  0  0  0  0
  138.1259  150.9095  142.4414 C   0  0  0  0  0  0  0  0  0  0  0  0
  136.8263  150.0689  142.3038 C   0  0  0  0  0  0  0  0  0  0  0  0
  137.4424  148.8411  138.8938 C   0  0  0  0  0  0  0  0  0  0  0  0
  138.1148  151.5124  144.1652 Cl  0  0  0  0  0  0  0  0  0  0  0  0
  136.4916  149.4964  141.0976 C   0  0  0  0  0  0  0  0  0  0  0  0
  1  2  1  0
  2  3  1  0
  2  4  2  0
  4  5  1  0
  5  6  2  0
  3  7  1  0
  5  8  1  0
  3  9  2  0
  6  9  1  0
M  END
$$$$

     RDKit          3D

  9  9  0  0  0  0  0  0  0  0999 V2000
  140.3038  150.2150  139.4785 Cl  0  0  0  0  0  0  0  0  0  0  0  0
  138.6786  150.1874  140.5317 C   0  0  0  0  0  0  0  0  0  0  0  0
  137.6385  149.3840  140.0946 C   0  0  0  0  0  0  0  0  0  0  0  0
  138.8663  150.7187  141.4505 C   0  0  0  0  0  0  0  0  0  0  0  0
  137.5305  148.8053  138.7973 C   0  0  0  0  0  0  0  0  0  0  0  0
  136.5357  149.6033  140.9589 C   0  0  0  0  0  0  0  0  0  0  0  0
  136.5810  150.3199  142.1372 C   0  0  0  0  0  0  0  0  0  0  0  0
  137.7633  150.9472  142.4536 C   0  0  0  0  0  0  0  0  0  0  0  0
  137.8354  151.7440  143.8834 C   0  0  0  0  0  0  0  0  0  0  0  0
  1  2  1  0
  2  3  2  0
  2  4  1  0
  3  5  1  0
  3  6  1  0
  6  7  2  0
  4  8  2  0
  7  8  1  0
  8  9  1  0
M  END
$$$$

     RDKit          3D

  9  9  0  0  0  0  0  0  0  0999 V2000
  139.2621  151.0930  142.4042 C   0  0  0  0  0  0  0  0  0  0  0  0
  138.8616  152.1304  142.9039 C   0  0  0  0  0  0  0  0  0  0  0  0
  137.9119  151.7966  143.7821 C   0  0  0  0  0  0  0  0  0  0  0  0
  138.8318  150.4014  141.6013 C   0  0  0  0  0  0  0  0  0  0  0  0
  137.2899  150.4879  143.7063 C   0  0  0  0  0  0  0  0  0  0  0  0
  139.3830  149.8861  140.3213 C   0  0  0  0  0  0  0  0  0  0  0  0
  140.5714  149.7141  139.9845 O   0  0  0  0  0  0  0  0  0  0  0  0
  138.5948  149.8456  139.3573 O   0  0  0  0  0  0  0  0  0  0  0  0
  137.5966  149.7078  142.2198 C   0  0  0  0  0  0  0  0  0  0  0  0
  1  2  1  0
  2  3  2  0
  1  4  2  0
  3  5  1  0
  4  6  1  0
  6  7  1  0
  6  8  2  0
  4  9  1  0
  5  9  1  0
M  END
$$$$

     RDKit          3D

  9  9  0  0  0  0  0  0  0  0999 V2000
  139.3423  149.9928  140.5892 C   0  0  0  0  0  0  0  0  0  0  0  0
  138.9530  149.9232  139.3662 C   0  0  0  0  0  0  0  0  0  0  0  0
  138.6126  150.1100  141.6424 C   0  0  0  0  0  0  0  0  0  0  0  0
  137.1875  149.8648  141.8313 C   0  0  0  0  0  0  0  0  0  0  0  0
  136.4687  150.2670  142.9657 C   0  0  0  0  0  0  0  0  0  0  0  0
  137.3880  150.8137  143.7442 C   0  0  0  0  0  0  0  0  0  0  0  0
  137.1521  151.3621  145.1126 C   0  0  0  0  0  0  0  0  0  0  0  0
  138.9063  150.5654  143.1016 C   0  0  0  0  0  0  0  0  0  0  0  0
  140.7049  150.3434  140.7337 C   0  0  0  0  0  0  0  0  0  0  0  0
  1  2  2  0
  1  3  1  0
  3  4  1  0
  4  5  2  0
  5  6  1  0
  6  7  1  0
  3  8  1  0
  6  8  2  0
  1  9  1  0
M  END
$$$$

     RDKit          3D

  9  9  0  0  0  0  0  0  0  0999 V2000
  138.9705  151.3131  142.5679 C   0  0  0  0  0  0  0  0  0  0  0  0
  138.6042  152.0888  143.2654 C   0  0  0  0  0  0  0  0  0  0  0  0
  137.6273  151.7082  144.0681 C   0  0  0  0  0  0  0  0  0  0  0  0
  137.2534  150.3600  144.1198 C   0  0  0  0  0  0  0  0  0  0  0  0
  136.9631  152.5471  145.1695 C   0  0  0  0  0  0  0  0  0  0  0  0
  138.5343  149.9283  142.4171 C   0  0  0  0  0  0  0  0  0  0  0  0
  137.1920  153.7819  145.1669 C   0  0  0  0  0  0  0  0  0  0  0  0
  137.7763  149.4171  143.3443 C   0  0  0  0  0  0  0  0  0  0  0  0
  135.7410  152.0885  145.4267 C   0  0  0  0  0  0  0  0  0  0  0  0
  1  2  1  0
  2  3  2  0
  3  4  1  0
  3  5  1  0
  1  6  2  0
  5  7  1  0
  4  8  2  0
  6  8  1  0
  5  9  1  0
M  END
$$$$

     RDKit          3D

  9  9  0  0  0  0  0  0  0  0999 V2000
  139.2621  151.0930  142.4042 C   0  0  0  0  0  0  0  0  0  0  0  0
  138.8616  152.1304  142.9039 C   0  0  0  0  0  0  0  0  0  0  0  0
  137.9119  151.7966  143.7821 C   0  0  0  0  0  0  0  0  0  0  0  0
  138.8318  150.4014  141.6013 C   0  0  0  0  0  0  0  0  0  0  0  0
  137.2899  150.4879  143.7063 C   0  0  0  0  0  0  0  0  0  0  0  0
  139.3830  149.8861  140.3213 C   0  0  0  0  0  0  0  0  0  0  0  0
  140.5714  149.7141  139.9845 O   0  0  0  0  0  0  0  0  0  0  0  0
  138.5377  149.7695  139.3042 O   0  0  0  0  0  0  0  0  0  0  0  0
  137.5941  149.7104  142.2154 C   0  0  0  0  0  0  0  0  0  0  0  0
  1  2  1  0
  2  3  2  0
  1  4  2  0
  3  5  1  0
  4  6  1  0
  6  7  1  0
  6  8  2  0
  4  9  1  0
  5  9  2  0
M  END
$$$$

     RDKit          3D

  9  8  0  0  0  0  0  0  0  0999 V2000
  138.9705  151.3131  142.5679 C   0  0  0  0  0  0  0  0  0  0  0  0
  138.6042  152.0888  143.2654 C   0  0  0  0  0  0  0  0  0  0  0  0
  139.7531  151.4376  141.3509 C   0  0  0  0  0  0  0  0  0  0  0  0
  137.7656  151.7117  144.3553 C   0  0  0  0  0  0  0  0  0  0  0  0
  136.9071  152.4952  145.1793 C   0  0  0  0  0  0  0  0  0  0  0  0
  137.1222  153.8092  145.1376 C   0  0  0  0  0  0  0  0  0  0  0  0
  139.6293  150.4815  140.2032 C   0  0  0  0  0  0  0  0  0  0  0  0
  136.0801  151.9478  145.7184 C   0  0  0  0  0  0  0  0  0  0  0  0
  134.7280  152.4350  145.8102 C   0  0  0  0  0  0  0  0  0  0  0  0
  1  2  1  0
  1  3  1  0
  2  4  2  3
  4  5  1  0
  5  6  1  0
  3  7  1  0
  5  8  2  3
  8  9  1  0
M  END
$$$$

     RDKit          3D

  9  9  0  0  0  0  0  0  0  0999 V2000
  140.3038  150.2150  139.4785 Cl  0  0  0  0  0  0  0  0  0  0  0  0
  138.6786  150.1874  140.5317 C   0  0  0  0  0  0  0  0  0  0  0  0
  137.6385  149.3840  140.0946 C   0  0  0  0  0  0  0  0  0  0  0  0
  138.7506  150.9507  141.6713 C   0  0  0  0  0  0  0  0  0  0  0  0
  136.4554  149.4385  140.9265 C   0  0  0  0  0  0  0  0  0  0  0  0
  137.6760  150.9729  142.5318 C   0  0  0  0  0  0  0  0  0  0  0  0
  135.2205  148.9604  140.4644 C   0  0  0  0  0  0  0  0  0  0  0  0
  136.5454  150.2691  142.0990 C   0  0  0  0  0  0  0  0  0  0  0  0
  137.7556  151.7334  144.0294 Cl  0  0  0  0  0  0  0  0  0  0  0  0
  1  2  1  0
  2  3  2  0
  2  4  1  0
  3  5  1  0
  4  6  2  0
  5  7  1  0
  5  8  2  0
  6  8  1  0
  6  9  1  0
M  END
$$$$

     RDKit          3D

  9  9  0  0  0  0  0  0  0  0999 V2000
  138.9705  151.3131  142.5679 C   0  0  0  0  0  0  0  0  0  0  0  0
  138.6042  152.0888  143.2654 C   0  0  0  0  0  0  0  0  0  0  0  0
  137.4887  151.7640  144.1910 C   0  0  0  0  0  0  0  0  0  0  0  0
  139.9944  151.3872  141.4253 C   0  0  0  0  0  0  0  0  0  0  0  0
  138.7742  149.9746  142.2086 C   0  0  0  0  0  0  0  0  0  0  0  0
  137.0936  150.4845  144.2535 C   0  0  0  0  0  0  0  0  0  0  0  0
  137.6557  149.4282  143.1756 C   0  0  0  0  0  0  0  0  0  0  0  0
  139.7681  150.8159  140.2480 C   0  0  0  0  0  0  0  0  0  0  0  0
  136.7590  152.7594  145.1841 C   0  0  0  0  0  0  0  0  0  0  0  0
  1  2  1  0
  2  3  2  0
  1  4  1  0
  1  5  2  0
  3  6  1  0
  5  7  1  0
  6  7  2  0
  4  8  1  0
  3  9  1  0
M  END
$$$$

     RDKit          3D

  9  9  0  0  0  0  0  0  0  0999 V2000
  139.2621  151.0930  142.4042 C   0  0  0  0  0  0  0  0  0  0  0  0
  138.8616  152.1304  142.9039 C   0  0  0  0  0  0  0  0  0  0  0  0
  137.9119  151.7966  143.7821 C   0  0  0  0  0  0  0  0  0  0  0  0
  138.7654  149.7982  142.5171 C   0  0  0  0  0  0  0  0  0  0  0  0
  137.7602  149.7628  143.5372 C   0  0  0  0  0  0  0  0  0  0  0  0
  137.4206  153.0951  144.6591 C   0  0  0  0  0  0  0  0  0  0  0  0
  136.2493  152.9547  145.2581 C   0  0  0  0  0  0  0  0  0  0  0  0
  137.3213  150.7107  144.2371 C   0  0  0  0  0  0  0  0  0  0  0  0
  135.6458  154.1812  145.8249 C   0  0  0  0  0  0  0  0  0  0  0  0
  1  2  1  0
  2  3  2  0
  1  4  2  0
  4  5  1  0
  3  6  1  0
  6  7  2  3
  3  8  1  0
  5  8  2  0
  7  9  1  0
M  END
$$$$

     RDKit          3D

  9  9  0  0  0  0  0  0  0  0999 V2000
  140.3038  150.2150  139.4785 Cl  0  0  0  0  0  0  0  0  0  0  0  0
  138.6786  150.1874  140.5317 C   0  0  0  0  0  0  0  0  0  0  0  0
  137.6385  149.3840  140.0946 C   0  0  0  0  0  0  0  0  0  0  0  0
  138.8663  150.7187  141.4505 C   0  0  0  0  0  0  0  0  0  0  0  0
  136.5679  149.5915  140.7717 C   0  0  0  0  0  0  0  0  0  0  0  0
  136.4392  150.3739  141.9168 C   0  0  0  0  0  0  0  0  0  0  0  0
  135.2724  150.5937  142.7496 C   0  0  0  0  0  0  0  0  0  0  0  0
  137.7274  150.9737  142.4013 C   0  0  0  0  0  0  0  0  0  0  0  0
  137.8744  151.6877  143.6797 C   0  0  0  0  0  0  0  0  0  0  0  0
  1  2  1  0
  2  3  2  0
  2  4  1  0
  3  5  1  0
  5  6  2  0
  6  7  1  0
  4  8  2  0
  6  8  1  0
  8  9  1  0
M  END
$$$$

     RDKit          3D

  9  9  0  0  0  0  0  0  0  0999 V2000
  139.0013  149.7640  140.3646 C   0  0  0  0  0  0  0  0  0  0  0  0
  139.7636  150.8550  140.7369 C   0  0  0  0  0  0  0  0  0  0  0  0
  139.2619  149.1449  139.1763 C   0  0  0  0  0  0  0  0  0  0  0  0
  139.5458  151.5170  142.0091 C   0  0  0  0  0  0  0  0  0  0  0  0
  138.4620  150.9910  142.6961 C   0  0  0  0  0  0  0  0  0  0  0  0
  137.9087  149.5380  141.2374 C   0  0  0  0  0  0  0  0  0  0  0  0
  136.9894  148.5324  140.6111 C   0  0  0  0  0  0  0  0  0  0  0  0
  137.6865  150.0877  142.3762 C   0  0  0  0  0  0  0  0  0  0  0  0
  138.2914  151.8060  144.2444 C   0  0  0  0  0  0  0  0  0  0  0  0
  1  2  2  0
  1  3  1  0
  2  4  1  0
  4  5  2  0
  1  6  1  0
  6  7  1  0
  5  8  1  0
  6  8  2  0
  5  9  1  0
M  END
$$$$

     RDKit          3D

  9  9  0  0  0  0  0  0  0  0999 V2000
  139.0013  149.7640  140.3646 C   0  0  0  0  0  0  0  0  0  0  0  0
  138.7145  149.5450  139.1245 C   0  0  0  0  0  0  0  0  0  0  0  0
  138.1850  150.1042  141.2847 C   0  0  0  0  0  0  0  0  0  0  0  0
  137.3213  149.5892  138.6814 C   0  0  0  0  0  0  0  0  0  0  0  0
  136.3778  149.8050  139.7334 C   0  0  0  0  0  0  0  0  0  0  0  0
  134.9489  149.8828  139.5594 C   0  0  0  0  0  0  0  0  0  0  0  0
  138.7131  150.4367  142.6974 C   0  0  0  0  0  0  0  0  0  0  0  0
  138.1966  151.4196  143.3843 C   0  0  0  0  0  0  0  0  0  0  0  0
  136.7468  150.2338  141.0531 C   0  0  0  0  0  0  0  0  0  0  0  0
  1  2  2  0
  1  3  1  0
  2  4  1  0
  4  5  2  0
  5  6  1  0
  3  7  1  0
  7  8  2  0
  3  9  2  0
  5  9  1  0
M  END
$$$$

     RDKit          3D

  9  9  0  0  0  0  0  0  0  0999 V2000
  139.3423  149.9928  140.5892 C   0  0  0  0  0  0  0  0  0  0  0  0
  138.9530  149.9232  139.3662 C   0  0  0  0  0  0  0  0  0  0  0  0
  138.6126  150.1100  141.6424 C   0  0  0  0  0  0  0  0  0  0  0  0
  137.1875  149.8648  141.8313 C   0  0  0  0  0  0  0  0  0  0  0  0
  136.5143  149.7627  140.5785 C   0  0  0  0  0  0  0  0  0  0  0  0
  139.1751  150.3995  143.1329 C   0  0  0  0  0  0  0  0  0  0  0  0
  139.7280  149.8743  138.1815 C   0  0  0  0  0  0  0  0  0  0  0  0
  137.1158  149.7031  139.2665 C   0  0  0  0  0  0  0  0  0  0  0  0
  138.3525  151.1737  143.9053 C   0  0  0  0  0  0  0  0  0  0  0  0
  1  2  2  0
  1  3  1  0
  3  4  1  0
  4  5  2  0
  3  6  1  0
  2  7  1  0
  2  8  1  0
  5  8  1  0
  6  9  1  0
M  END
$$$$

     RDKit          3D

  9  9  0  0  0  0  0  0  0  0999 V2000
  139.2621  151.0930  142.4042 C   0  0  0  0  0  0  0  0  0  0  0  0
  138.8616  152.1304  142.9039 C   0  0  0  0  0  0  0  0  0  0  0  0
  137.9119  151.7966  143.7821 C   0  0  0  0  0  0  0  0  0  0  0  0
  138.8318  150.4014  141.6013 C   0  0  0  0  0  0  0  0  0  0  0  0
  137.2899  150.4879  143.7063 C   0  0  0  0  0  0  0  0  0  0  0  0
  139.3830  149.8861  140.3213 C   0  0  0  0  0  0  0  0  0  0  0  0
  140.5714  149.7141  139.9845 O   0  0  0  0  0  0  0  0  0  0  0  0
  140.9869  150.6142  139.0280 C   0  0  0  0  0  0  0  0  0  0  0  0
  137.5889  149.7837  142.2442 C   0  0  0  0  0  0  0  0  0  0  0  0
  1  2  1  0
  2  3  2  0
  1  4  2  0
  3  5  1  0
  4  6  1  0
  6  7  1  0
  7  8  1  0
  4  9  1  0
  5  9  2  0
M  END
$$$$

     RDKit          3D

  9  9  0  0  0  0  0  0  0  0999 V2000
  139.5350  150.8913  142.2315 C   0  0  0  0  0  0  0  0  0  0  0  0
  139.0135  150.3971  141.0590 C   0  0  0  0  0  0  0  0  0  0  0  0
  138.6977  150.9503  143.4041 C   0  0  0  0  0  0  0  0  0  0  0  0
  137.7106  149.9444  141.0466 C   0  0  0  0  0  0  0  0  0  0  0  0
  137.5168  150.9379  143.4786 C   0  0  0  0  0  0  0  0  0  0  0  0
  136.8087  150.2404  142.2066 C   0  0  0  0  0  0  0  0  0  0  0  0
  139.9245  150.3291  139.7195 C   0  0  0  0  0  0  0  0  0  0  0  0
  139.3315  150.3453  138.6016 C   0  0  0  0  0  0  0  0  0  0  0  0
  136.5456  151.2347  144.7449 C   0  0  0  0  0  0  0  0  0  0  0  0
  1  2  2  0
  1  3  1  0
  2  4  1  0
  3  5  2  0
  4  6  2  0
  5  6  1  0
  2  7  1  0
  7  8  2  0
  5  9  1  0
M  END
$$$$

     RDKit          3D

  9  9  0  0  0  0  0  0  0  0999 V2000
  138.9705  151.3131  142.5679 C   0  0  0  0  0  0  0  0  0  0  0  0
  138.6042  152.0888  143.2654 C   0  0  0  0  0  0  0  0  0  0  0  0
  137.6273  151.7082  144.0681 C   0  0  0  0  0  0  0  0  0  0  0  0
  140.0295  151.3220  141.4158 C   0  0  0  0  0  0  0  0  0  0  0  0
  137.1764  150.3230  143.8753 C   0  0  0  0  0  0  0  0  0  0  0  0
  139.8138  150.4363  140.2790 C   0  0  0  0  0  0  0  0  0  0  0  0
  138.3534  149.9787  142.3813 C   0  0  0  0  0  0  0  0  0  0  0  0
  140.7301  150.7697  139.1345 C   0  0  0  0  0  0  0  0  0  0  0  0
  137.5328  149.5651  143.2689 C   0  0  0  0  0  0  0  0  0  0  0  0
  1  2  1  0
  2  3  2  0
  1  4  1  0
  3  5  1  0
  4  6  1  0
  1  7  2  0
  6  8  1  0
  5  9  2  0
  7  9  1  0
M  END
$$$$

     RDKit          3D

  9  8  0  0  0  0  0  0  0  0999 V2000
  138.9705  151.3131  142.5679 C   0  0  0  0  0  0  0  0  0  0  0  0
  138.6042  152.0888  143.2654 C   0  0  0  0  0  0  0  0  0  0  0  0
  139.7531  151.4376  141.3509 C   0  0  0  0  0  0  0  0  0  0  0  0
  137.7656  151.7117  144.3553 C   0  0  0  0  0  0  0  0  0  0  0  0
  139.6324  150.5460  140.2932 C   0  0  0  0  0  0  0  0  0  0  0  0
  137.0388  152.4681  145.2767 C   0  0  0  0  0  0  0  0  0  0  0  0
  137.2005  153.7850  145.2226 C   0  0  0  0  0  0  0  0  0  0  0  0
  140.3455  150.4545  139.0829 C   0  0  0  0  0  0  0  0  0  0  0  0
  135.7497  152.1443  145.3943 C   0  0  0  0  0  0  0  0  0  0  0  0
  1  2  1  0
  1  3  1  0
  2  4  2  3
  3  5  2  3
  4  6  1  0
  6  7  1  0
  5  8  1  0
  6  9  1  0
M  END
$$$$

     RDKit          3D

  9  9  0  0  0  0  0  0  0  0999 V2000
  140.3038  150.2150  139.4785 Cl  0  0  0  0  0  0  0  0  0  0  0  0
  138.6786  150.1874  140.5317 C   0  0  0  0  0  0  0  0  0  0  0  0
  137.6385  149.3840  140.0946 C   0  0  0  0  0  0  0  0  0  0  0  0
  138.8663  150.7187  141.4505 C   0  0  0  0  0  0  0  0  0  0  0  0
  138.3190  150.9399  142.2982 C   0  0  0  0  0  0  0  0  0  0  0  0
  136.6325  149.6167  140.7938 C   0  0  0  0  0  0  0  0  0  0  0  0
  136.5175  150.2329  142.0586 C   0  0  0  0  0  0  0  0  0  0  0  0
  139.1460  151.7569  143.6201 Cl  0  0  0  0  0  0  0  0  0  0  0  0
  137.3026  150.8849  142.7752 C   0  0  0  0  0  0  0  0  0  0  0  0
  1  2  1  0
  2  3  2  0
  2  4  1  0
  4  5  2  0
  3  6  1  0
  6  7  2  0
  5  8  1  0
  5  9  1  0
  7  9  1  0
M  END
$$$$

     RDKit          3D

  9  9  0  0  0  0  0  0  0  0999 V2000
  139.3423  149.9928  140.5892 C   0  0  0  0  0  0  0  0  0  0  0  0
  138.9530  149.9232  139.3662 C   0  0  0  0  0  0  0  0  0  0  0  0
  138.6126  150.1100  141.6424 C   0  0  0  0  0  0  0  0  0  0  0  0
  137.1875  149.8648  141.8313 C   0  0  0  0  0  0  0  0  0  0  0  0
  136.5143  149.7627  140.5785 C   0  0  0  0  0  0  0  0  0  0  0  0
  137.2417  149.7110  139.2356 C   0  0  0  0  0  0  0  0  0  0  0  0
  139.2044  150.3486  143.0594 C   0  0  0  0  0  0  0  0  0  0  0  0
  138.6210  150.5149  144.2082 C   0  0  0  0  0  0  0  0  0  0  0  0
  137.7197  151.6604  144.4891 C   0  0  0  0  0  0  0  0  0  0  0  0
  1  2  2  0
  1  3  1  0
  3  4  1  0
  4  5  2  0
  2  6  1  0
  5  6  1  0
  3  7  2  3
  7  8  1  0
  8  9  1  0
M  END
$$$$

     RDKit          3D

  9  9  0  0  0  0  0  0  0  0999 V2000
  139.3423  149.9928  140.5892 C   0  0  0  0  0  0  0  0  0  0  0  0
  138.9530  149.9232  139.3662 C   0  0  0  0  0  0  0  0  0  0  0  0
  138.6126  150.1100  141.6424 C   0  0  0  0  0  0  0  0  0  0  0  0
  137.1875  149.8648  141.8313 C   0  0  0  0  0  0  0  0  0  0  0  0
  136.5143  149.7627  140.5785 C   0  0  0  0  0  0  0  0  0  0  0  0
  139.1751  150.3995  143.1329 C   0  0  0  0  0  0  0  0  0  0  0  0
  138.2221  150.9725  144.0846 C   0  0  0  0  0  0  0  0  0  0  0  0
  137.3832  149.6970  139.2597 C   0  0  0  0  0  0  0  0  0  0  0  0
  137.6118  152.1716  143.8874 C   0  0  0  0  0  0  0  0  0  0  0  0
  1  2  2  0
  1  3  1  0
  3  4  1  0
  4  5  2  0
  3  6  1  0
  6  7  1  0
  2  8  1  0
  5  8  1  0
  7  9  1  0
M  END
$$$$

     RDKit          3D

  9 10  0  0  0  0  0  0  0  0999 V2000
  138.7090  151.1480  142.6270 C   0  0  0  0  0  0  0  0  0  0  0  0
  138.5232  151.9372  143.5110 C   0  0  0  0  0  0  0  0  0  0  0  0
  137.3801  151.6562  144.3958 C   0  0  0  0  0  0  0  0  0  0  0  0
  139.7036  151.1026  141.6212 C   0  0  0  0  0  0  0  0  0  0  0  0
  136.7239  150.4190  144.0179 C   0  0  0  0  0  0  0  0  0  0  0  0
  137.9015  150.0241  142.3223 C   0  0  0  0  0  0  0  0  0  0  0  0
  138.2278  149.2932  141.1442 C   0  0  0  0  0  0  0  0  0  0  0  0
  136.8724  149.7213  143.1132 C   0  0  0  0  0  0  0  0  0  0  0  0
  139.3950  149.9553  140.5208 C   0  0  0  0  0  0  0  0  0  0  0  0
  1  2  1  0
  2  3  2  0
  1  4  1  0
  3  5  1  0
  1  6  2  0
  6  7  1  0
  5  8  2  0
  6  8  1  0
  4  9  2  0
  7  9  2  0
M  END
$$$$

     RDKit          3D

  9  9  0  0  0  0  0  0  0  0999 V2000
  138.9705  151.3131  142.5679 C   0  0  0  0  0  0  0  0  0  0  0  0
  138.6042  152.0888  143.2654 C   0  0  0  0  0  0  0  0  0  0  0  0
  137.4887  151.7640  144.1910 C   0  0  0  0  0  0  0  0  0  0  0  0
  139.9944  151.3872  141.4253 C   0  0  0  0  0  0  0  0  0  0  0  0
  139.7073  150.7352  140.2228 C   0  0  0  0  0  0  0  0  0  0  0  0
  137.0842  150.3806  143.9221 C   0  0  0  0  0  0  0  0  0  0  0  0
  138.1230  149.9942  142.5027 C   0  0  0  0  0  0  0  0  0  0  0  0
  140.7296  150.7840  139.1610 C   0  0  0  0  0  0  0  0  0  0  0  0
  136.7790  152.3997  145.2865 C   0  0  0  0  0  0  0  0  0  0  0  0
  1  2  1  0
  2  3  2  0
  1  4  1  0
  4  5  2  3
  3  6  1  0
  1  7  2  0
  6  7  1  0
  5  8  1  0
  3  9  1  0
M  END
$$$$

     RDKit          3D

  9  9  0  0  0  0  0  0  0  0999 V2000
  139.2621  151.0930  142.4042 C   0  0  0  0  0  0  0  0  0  0  0  0
  138.8616  152.1304  142.9039 C   0  0  0  0  0  0  0  0  0  0  0  0
  137.9119  151.7966  143.7821 C   0  0  0  0  0  0  0  0  0  0  0  0
  138.8318  150.4014  141.6013 C   0  0  0  0  0  0  0  0  0  0  0  0
  137.6882  149.9441  141.7473 C   0  0  0  0  0  0  0  0  0  0  0  0
  136.7295  151.0149  143.4791 C   0  0  0  0  0  0  0  0  0  0  0  0
  136.5888  150.2155  142.5543 C   0  0  0  0  0  0  0  0  0  0  0  0
  135.6602  151.3433  144.5255 C   0  0  0  0  0  0  0  0  0  0  0  0
  136.0026  151.9872  145.5458 O   0  0  0  0  0  0  0  0  0  0  0  0
  1  2  1  0
  2  3  2  0
  1  4  2  0
  4  5  1  0
  3  6  1  0
  5  7  2  0
  6  7  1  0
  6  8  1  0
  8  9  1  0
M  END
$$$$

     RDKit          3D

  9 10  0  0  0  0  0  0  0  0999 V2000
  138.7090  151.1480  142.6270 C   0  0  0  0  0  0  0  0  0  0  0  0
  138.5232  151.9372  143.5110 C   0  0  0  0  0  0  0  0  0  0  0  0
  137.3801  151.6562  144.3958 C   0  0  0  0  0  0  0  0  0  0  0  0
  139.7036  151.1026  141.6212 C   0  0  0  0  0  0  0  0  0  0  0  0
  136.7239  150.4190  144.0179 C   0  0  0  0  0  0  0  0  0  0  0  0
  137.9015  150.0241  142.3223 C   0  0  0  0  0  0  0  0  0  0  0  0
  138.2278  149.2932  141.1442 C   0  0  0  0  0  0  0  0  0  0  0  0
  136.8724  149.7213  143.1132 C   0  0  0  0  0  0  0  0  0  0  0  0
  139.0697  150.1207  140.4004 C   0  0  0  0  0  0  0  0  0  0  0  0
  1  2  1  0
  2  3  2  0
  1  4  1  0
  3  5  1  0
  1  6  2  0
  6  7  1  0
  5  8  2  0
  6  8  1  0
  4  9  1  0
  7  9  2  0
M  END
$$$$

     RDKit          3D

  9  9  0  0  0  0  0  0  0  0999 V2000
  139.3423  149.9928  140.5892 C   0  0  0  0  0  0  0  0  0  0  0  0
  138.9530  149.9232  139.3662 C   0  0  0  0  0  0  0  0  0  0  0  0
  138.6126  150.1100  141.6424 C   0  0  0  0  0  0  0  0  0  0  0  0
  137.1875  149.8648  141.8313 C   0  0  0  0  0  0  0  0  0  0  0  0
  136.5143  149.7627  140.5785 C   0  0  0  0  0  0  0  0  0  0  0  0
  139.1985  150.3843  143.0722 C   0  0  0  0  0  0  0  0  0  0  0  0
  137.4123  149.7222  139.1861 C   0  0  0  0  0  0  0  0  0  0  0  0
  138.2478  150.9251  144.1016 C   0  0  0  0  0  0  0  0  0  0  0  0
  137.5007  150.3059  144.8093 C   0  0  0  0  0  0  0  0  0  0  0  0
  1  2  2  0
  1  3  1  0
  3  4  1  0
  4  5  2  0
  3  6  1  0
  2  7  1  0
  5  7  1  0
  6  8  1  0
  8  9  2  0
M  END
$$$$

     RDKit          3D

  9  9  0  0  0  0  0  0  0  0999 V2000
  138.9705  151.3131  142.5679 C   0  0  0  0  0  0  0  0  0  0  0  0
  138.6042  152.0888  143.2654 C   0  0  0  0  0  0  0  0  0  0  0  0
  137.6600  151.8318  144.0475 C   0  0  0  0  0  0  0  0  0  0  0  0
  139.9937  151.3538  141.4312 C   0  0  0  0  0  0  0  0  0  0  0  0
  137.4841  150.6607  144.8972 C   0  0  0  0  0  0  0  0  0  0  0  0
  139.6563  150.7262  140.2643 C   0  0  0  0  0  0  0  0  0  0  0  0
  138.5002  150.0432  140.1976 C   0  0  0  0  0  0  0  0  0  0  0  0
  138.1256  150.0241  142.1727 C   0  0  0  0  0  0  0  0  0  0  0  0
  137.8236  149.5639  141.0494 C   0  0  0  0  0  0  0  0  0  0  0  0
  1  2  2  3
  2  3  1  0
  1  4  1  0
  3  5  2  0
  4  6  2  0
  6  7  1  0
  1  8  1  0
  7  9  2  0
  8  9  2  0
M  END
$$$$

     RDKit          3D

  9  9  0  0  0  0  0  0  0  0999 V2000
  138.9705  151.3131  142.5679 C   0  0  0  0  0  0  0  0  0  0  0  0
  138.6042  152.0888  143.2654 C   0  0  0  0  0  0  0  0  0  0  0  0
  137.6273  151.7082  144.0681 C   0  0  0  0  0  0  0  0  0  0  0  0
  137.2534  150.3600  144.1198 C   0  0  0  0  0  0  0  0  0  0  0  0
  138.6239  149.8562  142.4598 C   0  0  0  0  0  0  0  0  0  0  0  0
  136.6490  152.4687  145.1150 C   0  0  0  0  0  0  0  0  0  0  0  0
  137.8025  149.3861  143.3452 C   0  0  0  0  0  0  0  0  0  0  0  0
  136.9749  153.7915  145.3460 C   0  0  0  0  0  0  0  0  0  0  0  0
  135.6791  151.8598  145.6658 C   0  0  0  0  0  0  0  0  0  0  0  0
  1  2  1  0
  2  3  2  0
  3  4  1  0
  1  5  2  0
  3  6  1  0
  4  7  2  0
  5  7  1  0
  6  8  2  0
  6  9  1  0
M  END
$$$$

     RDKit          3D

 10 11  0  0  0  0  0  0  0  0999 V2000
  139.2621  151.0930  142.4042 C   0  0  0  0  0  0  0  0  0  0  0  0
  138.8616  152.1304  142.9039 C   0  0  0  0  0  0  0  0  0  0  0  0
  137.7832  151.8907  143.8937 C   0  0  0  0  0  0  0  0  0  0  0  0
  138.6288  149.7794  142.4933 C   0  0  0  0  0  0  0  0  0  0  0  0
  137.3135  153.0103  144.6672 C   0  0  0  0  0  0  0  0  0  0  0  0
  136.1188  152.8988  145.2395 C   0  0  0  0  0  0  0  0  0  0  0  0
  136.9994  150.7047  144.2524 C   0  0  0  0  0  0  0  0  0  0  0  0
  135.4731  151.6850  145.2841 C   0  0  0  0  0  0  0  0  0  0  0  0
  135.9700  150.6579  144.9616 C   0  0  0  0  0  0  0  0  0  0  0  0
  137.6574  149.5928  143.5355 C   0  0  0  0  0  0  0  0  0  0  0  0
  1  2  1  0
  2  3  2  0
  1  4  2  0
  3  5  1  0
  5  6  2  0
  3  7  1  0
  6  8  1  0
  7  9  1  0
  8  9  2  0
  4 10  1  0
  7 10  2  0
M  END
$$$$

     RDKit          3D

 10 10  0  0  0  0  0  0  0  0999 V2000
  140.3038  150.2150  139.4785 Cl  0  0  0  0  0  0  0  0  0  0  0  0
  138.6786  150.1874  140.5317 C   0  0  0  0  0  0  0  0  0  0  0  0
  137.6385  149.3840  140.0946 C   0  0  0  0  0  0  0  0  0  0  0  0
  138.7732  150.9300  141.6509 C   0  0  0  0  0  0  0  0  0  0  0  0
  137.6842  150.8851  142.5415 C   0  0  0  0  0  0  0  0  0  0  0  0
  137.8367  151.5228  143.8907 C   0  0  0  0  0  0  0  0  0  0  0  0
  136.6459  150.1059  142.0575 C   0  0  0  0  0  0  0  0  0  0  0  0
  138.8378  152.0889  144.2793 O   0  0  0  0  0  0  0  0  0  0  0  0
  136.8476  151.4783  144.7730 O   0  0  0  0  0  0  0  0  0  0  0  0
  136.4846  149.4408  140.7637 C   0  0  0  0  0  0  0  0  0  0  0  0
  1  2  1  0
  2  3  1  0
  2  4  2  0
  4  5  1  0
  5  6  1  0
  5  7  2  0
  6  8  2  0
  6  9  1  0
  3 10  2  0
  7 10  1  0
M  END
$$$$

     RDKit          3D

 10 11  0  0  0  0  0  0  0  0999 V2000
  139.3423  149.9928  140.5892 C   0  0  0  0  0  0  0  0  0  0  0  0
  138.9530  149.9232  139.3662 C   0  0  0  0  0  0  0  0  0  0  0  0
  138.6126  150.1100  141.6424 C   0  0  0  0  0  0  0  0  0  0  0  0
  137.1875  149.8648  141.8313 C   0  0  0  0  0  0  0  0  0  0  0  0
  136.5143  149.7627  140.5785 C   0  0  0  0  0  0  0  0  0  0  0  0
  139.1422  150.4925  143.0862 C   0  0  0  0  0  0  0  0  0  0  0  0
  138.1958  151.0001  144.0544 C   0  0  0  0  0  0  0  0  0  0  0  0
  137.2173  149.6848  139.2597 C   0  0  0  0  0  0  0  0  0  0  0  0
  136.4483  150.0808  142.8239 N   0  0  0  0  0  0  0  0  0  0  0  0
  136.9366  150.6069  143.9536 C   0  0  0  0  0  0  0  0  0  0  0  0
  1  2  2  0
  1  3  1  0
  3  4  1  0
  4  5  2  0
  3  6  1  0
  6  7  2  0
  2  8  1  0
  5  8  1  0
  4  9  1  0
  7 10  1  0
  9 10  2  0
M  END
$$$$

     RDKit          3D

 10 11  0  0  0  0  0  0  0  0999 V2000
  139.2621  151.0930  142.4042 C   0  0  0  0  0  0  0  0  0  0  0  0
  138.8616  152.1304  142.9039 C   0  0  0  0  0  0  0  0  0  0  0  0
  137.7832  151.8907  143.8937 C   0  0  0  0  0  0  0  0  0  0  0  0
  138.6288  149.7794  142.4933 C   0  0  0  0  0  0  0  0  0  0  0  0
  137.3135  153.0103  144.6672 C   0  0  0  0  0  0  0  0  0  0  0  0
  136.1188  152.8988  145.2395 C   0  0  0  0  0  0  0  0  0  0  0  0
  136.9994  150.7047  144.2524 C   0  0  0  0  0  0  0  0  0  0  0  0
  135.4731  151.6850  145.2841 C   0  0  0  0  0  0  0  0  0  0  0  0
  135.9700  150.6579  144.9616 C   0  0  0  0  0  0  0  0  0  0  0  0
  137.6574  149.5928  143.5355 N   0  0  0  0  0  0  0  0  0  0  0  0
  1  2  1  0
  2  3  2  0
  1  4  2  0
  3  5  1  0
  5  6  2  0
  3  7  1  0
  6  8  1  0
  7  9  1  0
  8  9  2  0
  4 10  1  0
  7 10  2  0
M  END
$$$$

     RDKit          3D

 10 10  0  0  0  0  0  0  0  0999 V2000
  139.5350  150.8913  142.2315 C   0  0  0  0  0  0  0  0  0  0  0  0
  139.0135  150.3971  141.0590 C   0  0  0  0  0  0  0  0  0  0  0  0
  138.6977  150.9503  143.4041 C   0  0  0  0  0  0  0  0  0  0  0  0
  137.7106  149.9444  141.0466 C   0  0  0  0  0  0  0  0  0  0  0  0
  137.5168  150.9379  143.4786 C   0  0  0  0  0  0  0  0  0  0  0  0
  136.6712  151.1288  144.6803 C   0  0  0  0  0  0  0  0  0  0  0  0
  139.9778  150.4403  139.9186 C   0  0  0  0  0  0  0  0  0  0  0  0
  135.5917  151.9312  144.4988 C   0  0  0  0  0  0  0  0  0  0  0  0
  136.7696  150.3577  142.2620 C   0  0  0  0  0  0  0  0  0  0  0  0
  135.3013  152.8545  145.5603 C   0  0  0  0  0  0  0  0  0  0  0  0
  1  2  2  0
  1  3  1  0
  2  4  1  0
  3  5  2  0
  5  6  1  0
  2  7  1  0
  6  8  1  0
  4  9  2  0
  5  9  1  0
  8 10  1  0
M  END
$$$$

     RDKit          3D

 10 11  0  0  0  0  0  0  0  0999 V2000
  138.7090  151.1480  142.6270 C   0  0  0  0  0  0  0  0  0  0  0  0
  138.5232  151.9372  143.5110 C   0  0  0  0  0  0  0  0  0  0  0  0
  137.3801  151.6562  144.3958 C   0  0  0  0  0  0  0  0  0  0  0  0
  139.7036  151.1026  141.6212 C   0  0  0  0  0  0  0  0  0  0  0  0
  136.7239  150.4190  144.0179 C   0  0  0  0  0  0  0  0  0  0  0  0
  137.9015  150.0241  142.3223 C   0  0  0  0  0  0  0  0  0  0  0  0
  138.2278  149.2932  141.1442 C   0  0  0  0  0  0  0  0  0  0  0  0
  135.6391  150.1367  145.0898 C   0  0  0  0  0  0  0  0  0  0  0  0
  136.8872  149.7665  143.1406 N   0  0  0  0  0  0  0  0  0  0  0  0
  139.3145  149.9171  140.5189 C   0  0  0  0  0  0  0  0  0  0  0  0
  1  2  1  0
  2  3  2  0
  1  4  1  0
  3  5  1  0
  1  6  2  0
  6  7  1  0
  5  8  1  0
  5  9  2  0
  6  9  1  0
  4 10  1  0
  7 10  2  0
M  END
$$$$

     RDKit          3D

 10 10  0  0  0  0  0  0  0  0999 V2000
  138.7090  151.1480  142.6270 C   0  0  0  0  0  0  0  0  0  0  0  0
  138.5232  151.9372  143.5110 C   0  0  0  0  0  0  0  0  0  0  0  0
  137.3801  151.6562  144.3958 C   0  0  0  0  0  0  0  0  0  0  0  0
  139.7036  151.1026  141.6212 C   0  0  0  0  0  0  0  0  0  0  0  0
  139.4766  150.8806  140.3205 C   0  0  0  0  0  0  0  0  0  0  0  0
  136.7646  152.4560  145.3386 C   0  0  0  0  0  0  0  0  0  0  0  0
  135.4390  152.2626  145.7516 C   0  0  0  0  0  0  0  0  0  0  0  0
  138.2176  150.1947  140.1399 C   0  0  0  0  0  0  0  0  0  0  0  0
  137.3138  149.9311  141.2039 C   0  0  0  0  0  0  0  0  0  0  0  0
  137.5139  150.3876  142.4288 C   0  0  0  0  0  0  0  0  0  0  0  0
  1  2  1  0
  2  3  2  3
  1  4  1  0
  4  5  2  0
  3  6  1  0
  6  7  1  0
  5  8  1  0
  8  9  2  0
  1 10  2  0
  9 10  1  0
M  END
$$$$

     RDKit          3D

 10 11  0  0  0  0  0  0  0  0999 V2000
  139.3423  149.9928  140.5892 C   0  0  0  0  0  0  0  0  0  0  0  0
  138.9530  149.9232  139.3662 C   0  0  0  0  0  0  0  0  0  0  0  0
  138.6126  150.1100  141.6424 C   0  0  0  0  0  0  0  0  0  0  0  0
  137.1875  149.8648  141.8313 C   0  0  0  0  0  0  0  0  0  0  0  0
  136.5143  149.7627  140.5785 C   0  0  0  0  0  0  0  0  0  0  0  0
  139.1422  150.4925  143.0862 C   0  0  0  0  0  0  0  0  0  0  0  0
  138.1958  151.0001  144.0544 C   0  0  0  0  0  0  0  0  0  0  0  0
  136.4981  150.0900  143.0284 C   0  0  0  0  0  0  0  0  0  0  0  0
  137.0940  150.6540  144.0834 C   0  0  0  0  0  0  0  0  0  0  0  0
  137.4700  149.6585  139.0680 C   0  0  0  0  0  0  0  0  0  0  0  0
  1  2  2  0
  1  3  1  0
  3  4  1  0
  4  5  2  0
  3  6  1  0
  6  7  2  0
  4  8  1  0
  7  9  1  0
  8  9  2  0
  2 10  1  0
  5 10  1  0
M  END
$$$$

     RDKit          3D

 10 10  0  0  0  0  0  0  0  0999 V2000
  138.9705  151.3131  142.5679 C   0  0  0  0  0  0  0  0  0  0  0  0
  138.6042  152.0888  143.2654 C   0  0  0  0  0  0  0  0  0  0  0  0
  137.6273  151.7082  144.0681 C   0  0  0  0  0  0  0  0  0  0  0  0
  137.2534  150.3600  144.1198 C   0  0  0  0  0  0  0  0  0  0  0  0
  136.9631  152.5471  145.1695 C   0  0  0  0  0  0  0  0  0  0  0  0
  138.5343  149.9283  142.4171 C   0  0  0  0  0  0  0  0  0  0  0  0
  137.1920  153.7819  145.1669 C   0  0  0  0  0  0  0  0  0  0  0  0
  135.9214  151.9722  145.8779 C   0  0  0  0  0  0  0  0  0  0  0  0
  137.6926  149.4841  143.3820 C   0  0  0  0  0  0  0  0  0  0  0  0
  134.9073  152.6646  146.2666 C   0  0  0  0  0  0  0  0  0  0  0  0
  1  2  1  0
  2  3  2  0
  3  4  1  0
  3  5  1  0
  1  6  2  0
  5  7  1  0
  5  8  2  3
  4  9  2  0
  6  9  1  0
  8 10  1  0
M  END
$$$$

     RDKit          3D

 10 10  0  0  0  0  0  0  0  0999 V2000
  140.3038  150.2150  139.4785 Cl  0  0  0  0  0  0  0  0  0  0  0  0
  138.6786  150.1874  140.5317 C   0  0  0  0  0  0  0  0  0  0  0  0
  137.6385  149.3840  140.0946 C   0  0  0  0  0  0  0  0  0  0  0  0
  136.4399  149.4579  140.8211 C   0  0  0  0  0  0  0  0  0  0  0  0
  138.9830  150.6971  141.6805 C   0  0  0  0  0  0  0  0  0  0  0  0
  138.2331  150.9043  142.4752 C   0  0  0  0  0  0  0  0  0  0  0  0
  136.4508  150.1889  142.1260 C   0  0  0  0  0  0  0  0  0  0  0  0
  136.9669  150.6920  142.8292 C   0  0  0  0  0  0  0  0  0  0  0  0
  136.3806  151.1563  144.2047 C   0  0  0  0  0  0  0  0  0  0  0  0
  135.1721  151.7710  144.2417 C   0  0  0  0  0  0  0  0  0  0  0  0
  1  2  1  0
  2  3  2  0
  3  4  1  0
  2  5  1  0
  5  6  2  0
  4  7  2  0
  6  8  1  0
  7  8  1  0
  8  9  1  0
  9 10  1  0
M  END
$$$$

     RDKit          3D

 10 10  0  0  0  0  0  0  0  0999 V2000
  138.9705  151.3131  142.5679 C   0  0  0  0  0  0  0  0  0  0  0  0
  138.6042  152.0888  143.2654 C   0  0  0  0  0  0  0  0  0  0  0  0
  137.4887  151.7640  144.1910 C   0  0  0  0  0  0  0  0  0  0  0  0
  139.9944  151.3872  141.4253 C   0  0  0  0  0  0  0  0  0  0  0  0
  137.1404  150.3706  144.0333 C   0  0  0  0  0  0  0  0  0  0  0  0
  139.8149  150.4762  140.3126 C   0  0  0  0  0  0  0  0  0  0  0  0
  140.6005  150.5388  139.1317 C   0  0  0  0  0  0  0  0  0  0  0  0
  138.3107  149.8814  142.5016 C   0  0  0  0  0  0  0  0  0  0  0  0
  137.5321  149.5834  143.4454 C   0  0  0  0  0  0  0  0  0  0  0  0
  136.9189  152.8706  145.1977 C   0  0  0  0  0  0  0  0  0  0  0  0
  1  2  1  0
  2  3  2  0
  1  4  1  0
  3  5  1  0
  4  6  2  3
  6  7  1  0
  1  8  2  0
  5  9  2  0
  8  9  1  0
  3 10  1  0
M  END
$$$$

     RDKit          3D

 10 11  0  0  0  0  0  0  0  0999 V2000
  139.2621  151.0930  142.4042 C   0  0  0  0  0  0  0  0  0  0  0  0
  138.8616  152.1304  142.9039 C   0  0  0  0  0  0  0  0  0  0  0  0
  137.7832  151.8907  143.8937 C   0  0  0  0  0  0  0  0  0  0  0  0
  138.6288  149.7794  142.4933 C   0  0  0  0  0  0  0  0  0  0  0  0
  137.6140  149.6944  143.4740 C   0  0  0  0  0  0  0  0  0  0  0  0
  137.3772  153.1123  144.6944 C   0  0  0  0  0  0  0  0  0  0  0  0
  136.1211  153.0614  145.3871 C   0  0  0  0  0  0  0  0  0  0  0  0
  137.2234  150.6261  144.1997 C   0  0  0  0  0  0  0  0  0  0  0  0
  135.2879  151.9375  145.4390 C   0  0  0  0  0  0  0  0  0  0  0  0
  136.2521  150.5668  145.2393 C   0  0  0  0  0  0  0  0  0  0  0  0
  1  2  1  0
  2  3  2  0
  1  4  2  0
  4  5  1  0
  3  6  1  0
  6  7  2  0
  3  8  1  0
  5  8  2  0
  7  9  1  0
  8 10  1  0
  9 10  1  0
M  END
$$$$

     RDKit          3D

 10 11  0  0  0  0  0  0  0  0999 V2000
  138.9705  151.3131  142.5679 C   0  0  0  0  0  0  0  0  0  0  0  0
  138.6042  152.0888  143.2654 C   0  0  0  0  0  0  0  0  0  0  0  0
  137.4887  151.7640  144.1910 C   0  0  0  0  0  0  0  0  0  0  0  0
  139.9944  151.3872  141.4253 C   0  0  0  0  0  0  0  0  0  0  0  0
  139.7073  150.7352  140.2228 C   0  0  0  0  0  0  0  0  0  0  0  0
  137.0842  150.3806  143.9221 C   0  0  0  0  0  0  0  0  0  0  0  0
  138.4486  149.8974  142.0944 C   0  0  0  0  0  0  0  0  0  0  0  0
  137.4978  149.5509  142.9809 C   0  0  0  0  0  0  0  0  0  0  0  0
  138.9566  149.4355  140.8971 C   0  0  0  0  0  0  0  0  0  0  0  0
  136.8598  152.6323  145.2539 C   0  0  0  0  0  0  0  0  0  0  0  0
  1  2  1  0
  2  3  2  0
  1  4  1  0
  4  5  2  0
  3  6  1  0
  1  7  2  0
  6  8  2  0
  7  8  1  0
  5  9  1  0
  7  9  1  0
  3 10  1  0
M  END
$$$$

     RDKit          3D

 10 10  0  0  0  0  0  0  0  0999 V2000
  139.2621  151.0930  142.4042 C   0  0  0  0  0  0  0  0  0  0  0  0
  138.8616  152.1304  142.9039 C   0  0  0  0  0  0  0  0  0  0  0  0
  137.9119  151.7966  143.7821 C   0  0  0  0  0  0  0  0  0  0  0  0
  138.8318  150.4014  141.6013 C   0  0  0  0  0  0  0  0  0  0  0  0
  137.6882  149.9441  141.7473 C   0  0  0  0  0  0  0  0  0  0  0  0
  136.7295  151.0149  143.4791 C   0  0  0  0  0  0  0  0  0  0  0  0
  137.1335  149.1046  140.5445 C   0  0  0  0  0  0  0  0  0  0  0  0
  136.6451  150.2326  142.4949 C   0  0  0  0  0  0  0  0  0  0  0  0
  135.7340  151.3374  144.5323 C   0  0  0  0  0  0  0  0  0  0  0  0
  135.4145  150.8069  145.5213 C   0  0  0  0  0  0  0  0  0  0  0  0
  1  2  1  0
  2  3  2  0
  1  4  2  0
  4  5  1  0
  3  6  1  0
  5  7  1  0
  5  8  2  0
  6  8  1  0
  6  9  1  0
  9 10  2  0
M  END
$$$$

     RDKit          3D

 10 10  0  0  0  0  0  0  0  0999 V2000
  140.3038  150.2150  139.4785 Cl  0  0  0  0  0  0  0  0  0  0  0  0
  138.6786  150.1874  140.5317 C   0  0  0  0  0  0  0  0  0  0  0  0
  137.6385  149.3840  140.0946 C   0  0  0  0  0  0  0  0  0  0  0  0
  138.7732  150.9300  141.6509 C   0  0  0  0  0  0  0  0  0  0  0  0
  138.1259  150.9095  142.4414 C   0  0  0  0  0  0  0  0  0  0  0  0
  136.8263  150.0689  142.3038 C   0  0  0  0  0  0  0  0  0  0  0  0
  138.0570  151.6723  143.9569 C   0  0  0  0  0  0  0  0  0  0  0  0
  135.7559  150.1857  143.2650 C   0  0  0  0  0  0  0  0  0  0  0  0
  137.5176  148.8394  138.8750 C   0  0  0  0  0  0  0  0  0  0  0  0
  136.6105  149.5051  141.0494 C   0  0  0  0  0  0  0  0  0  0  0  0
  1  2  1  0
  2  3  1  0
  2  4  2  0
  4  5  1  0
  5  6  2  0
  5  7  1  0
  6  8  1  0
  3  9  1  0
  3 10  2  0
  6 10  1  0
M  END
$$$$

     RDKit          3D

 10 10  0  0  0  0  0  0  0  0999 V2000
  139.5350  150.8913  142.2315 C   0  0  0  0  0  0  0  0  0  0  0  0
  139.0135  150.3971  141.0590 C   0  0  0  0  0  0  0  0  0  0  0  0
  138.6977  150.9503  143.4041 C   0  0  0  0  0  0  0  0  0  0  0  0
  137.7106  149.9444  141.0466 C   0  0  0  0  0  0  0  0  0  0  0  0
  137.5168  150.9379  143.4786 C   0  0  0  0  0  0  0  0  0  0  0  0
  136.8378  150.2911  142.2747 C   0  0  0  0  0  0  0  0  0  0  0  0
  139.8806  150.2562  139.7288 C   0  0  0  0  0  0  0  0  0  0  0  0
  139.3080  150.2847  138.6017 C   0  0  0  0  0  0  0  0  0  0  0  0
  141.2313  150.2556  139.9278 C   0  0  0  0  0  0  0  0  0  0  0  0
  136.5510  151.3414  144.7861 C   0  0  0  0  0  0  0  0  0  0  0  0
  1  2  2  0
  1  3  1  0
  2  4  1  0
  3  5  2  0
  4  6  2  0
  5  6  1  0
  2  7  1  0
  7  8  1  0
  7  9  2  0
  5 10  1  0
M  END
$$$$

     RDKit          3D

 10 11  0  0  0  0  0  0  0  0999 V2000
  138.7090  151.1480  142.6270 C   0  0  0  0  0  0  0  0  0  0  0  0
  138.5232  151.9372  143.5110 C   0  0  0  0  0  0  0  0  0  0  0  0
  137.3801  151.6562  144.3958 C   0  0  0  0  0  0  0  0  0  0  0  0
  139.7036  151.1026  141.6212 C   0  0  0  0  0  0  0  0  0  0  0  0
  136.7239  150.4190  144.0179 C   0  0  0  0  0  0  0  0  0  0  0  0
  137.9015  150.0241  142.3223 C   0  0  0  0  0  0  0  0  0  0  0  0
  138.2278  149.2932  141.1442 C   0  0  0  0  0  0  0  0  0  0  0  0
  136.8724  149.7213  143.1132 C   0  0  0  0  0  0  0  0  0  0  0  0
  136.9192  152.5643  145.6100 C   0  0  0  0  0  0  0  0  0  0  0  0
  139.3922  149.9555  140.5335 C   0  0  0  0  0  0  0  0  0  0  0  0
  1  2  1  0
  2  3  2  0
  1  4  1  0
  3  5  1  0
  1  6  2  0
  6  7  1  0
  5  8  2  0
  6  8  1  0
  3  9  1  0
  4 10  1  0
  7 10  2  0
M  END
$$$$

     RDKit          3D

 10 11  0  0  0  0  0  0  0  0999 V2000
  138.9705  151.3131  142.5679 C   0  0  0  0  0  0  0  0  0  0  0  0
  138.6042  152.0888  143.2654 C   0  0  0  0  0  0  0  0  0  0  0  0
  137.6600  151.8318  144.0475 C   0  0  0  0  0  0  0  0  0  0  0  0
  137.3579  150.3956  144.4727 C   0  0  0  0  0  0  0  0  0  0  0  0
  137.8415  149.6345  143.8631 C   0  0  0  0  0  0  0  0  0  0  0  0
  136.7910  152.7621  144.8235 C   0  0  0  0  0  0  0  0  0  0  0  0
  135.4616  152.5748  145.2584 C   0  0  0  0  0  0  0  0  0  0  0  0
  135.1207  151.3143  145.4351 C   0  0  0  0  0  0  0  0  0  0  0  0
  136.2437  150.2968  145.3284 C   0  0  0  0  0  0  0  0  0  0  0  0
  139.0442  149.9078  142.6973 C   0  0  0  0  0  0  0  0  0  0  0  0
  1  2  2  0
  2  3  1  0
  3  4  2  0
  4  5  1  0
  3  6  1  0
  6  7  1  0
  7  8  2  0
  4  9  1  0
  8  9  1  0
  1 10  1  0
  5 10  2  0
M  END
$$$$

     RDKit          3D

 10 11  0  0  0  0  0  0  0  0999 V2000
  139.2621  151.0930  142.4042 C   0  0  0  0  0  0  0  0  0  0  0  0
  138.8616  152.1304  142.9039 C   0  0  0  0  0  0  0  0  0  0  0  0
  137.7832  151.8907  143.8937 C   0  0  0  0  0  0  0  0  0  0  0  0
  138.6288  149.7794  142.4933 C   0  0  0  0  0  0  0  0  0  0  0  0
  137.3135  153.0103  144.6672 C   0  0  0  0  0  0  0  0  0  0  0  0
  136.0160  152.9304  145.3412 C   0  0  0  0  0  0  0  0  0  0  0  0
  135.3275  151.7300  145.1897 C   0  0  0  0  0  0  0  0  0  0  0  0
  137.2771  150.4857  143.8438 C   0  0  0  0  0  0  0  0  0  0  0  0
  136.0799  150.4841  144.9375 C   0  0  0  0  0  0  0  0  0  0  0  0
  137.6888  149.5155  143.3523 N   0  0  0  0  0  0  0  0  0  0  0  0
  1  2  1  0
  2  3  2  0
  1  4  2  0
  3  5  1  0
  5  6  2  0
  6  7  1  0
  3  8  1  0
  7  9  1  0
  8  9  1  0
  4 10  1  0
  8 10  2  0
M  END
$$$$

     RDKit          3D

 10 10  0  0  0  0  0  0  0  0999 V2000
  138.9705  151.3131  142.5679 C   0  0  0  0  0  0  0  0  0  0  0  0
  138.6042  152.0888  143.2654 C   0  0  0  0  0  0  0  0  0  0  0  0
  139.7531  151.4376  141.3509 C   0  0  0  0  0  0  0  0  0  0  0  0
  137.7656  151.7117  144.3553 C   0  0  0  0  0  0  0  0  0  0  0  0
  139.7145  150.4722  140.2501 C   0  0  0  0  0  0  0  0  0  0  0  0
  138.2639  149.9216  142.8070 C   0  0  0  0  0  0  0  0  0  0  0  0
  140.4145  150.5407  139.2320 C   0  0  0  0  0  0  0  0  0  0  0  0
  137.2981  152.5702  145.4110 O   0  0  0  0  0  0  0  0  0  0  0  0
  136.0671  152.9177  145.2324 C   0  0  0  0  0  0  0  0  0  0  0  0
  137.6602  150.3380  144.1393 C   0  0  0  0  0  0  0  0  0  0  0  0
  1  2  1  0
  1  3  1  0
  2  4  2  0
  3  5  2  3
  1  6  2  0
  5  7  1  0
  4  8  1  0
  8  9  1  0
  4 10  1  0
  6 10  1  0
M  END
$$$$

     RDKit          3D

 10 10  0  0  0  0  0  0  0  0999 V2000
  140.3038  150.2150  139.4785 Cl  0  0  0  0  0  0  0  0  0  0  0  0
  138.6786  150.1874  140.5317 C   0  0  0  0  0  0  0  0  0  0  0  0
  137.6385  149.3840  140.0946 C   0  0  0  0  0  0  0  0  0  0  0  0
  139.0347  150.8837  141.6176 C   0  0  0  0  0  0  0  0  0  0  0  0
  136.4870  149.4739  141.0114 C   0  0  0  0  0  0  0  0  0  0  0  0
  135.2468  148.9969  140.4739 C   0  0  0  0  0  0  0  0  0  0  0  0
  136.7778  150.2789  142.0941 C   0  0  0  0  0  0  0  0  0  0  0  0
  135.6337  150.4006  143.1290 C   0  0  0  0  0  0  0  0  0  0  0  0
  137.9639  150.9221  142.5233 C   0  0  0  0  0  0  0  0  0  0  0  0
  138.1974  151.6615  143.8798 C   0  0  0  0  0  0  0  0  0  0  0  0
  1  2  1  0
  2  3  2  0
  2  4  1  0
  3  5  1  0
  5  6  1  0
  5  7  2  0
  7  8  1  0
  4  9  2  0
  7  9  1  0
  9 10  1  0
M  END
$$$$

     RDKit          3D

 10 10  0  0  0  0  0  0  0  0999 V2000
  139.3423  149.9928  140.5892 C   0  0  0  0  0  0  0  0  0  0  0  0
  138.9530  149.9232  139.3662 C   0  0  0  0  0  0  0  0  0  0  0  0
  138.6126  150.1100  141.6424 C   0  0  0  0  0  0  0  0  0  0  0  0
  137.1875  149.8648  141.8313 C   0  0  0  0  0  0  0  0  0  0  0  0
  136.5143  149.7627  140.5785 C   0  0  0  0  0  0  0  0  0  0  0  0
  139.1985  150.3843  143.0722 C   0  0  0  0  0  0  0  0  0  0  0  0
  135.0824  149.7120  140.3829 C   0  0  0  0  0  0  0  0  0  0  0  0
  139.6949  149.8503  138.1730 C   0  0  0  0  0  0  0  0  0  0  0  0
  137.2116  149.7225  139.2966 C   0  0  0  0  0  0  0  0  0  0  0  0
  138.4181  151.1915  143.8551 C   0  0  0  0  0  0  0  0  0  0  0  0
  1  2  2  0
  1  3  1  0
  3  4  1  0
  4  5  2  0
  3  6  1  0
  5  7  1  0
  2  8  1  0
  2  9  1  0
  5  9  1  0
  6 10  1  0
M  END
$$$$

     RDKit          3D

 10 11  0  0  0  0  0  0  0  0999 V2000
  139.2621  151.0930  142.4042 C   0  0  0  0  0  0  0  0  0  0  0  0
  138.8616  152.1304  142.9039 C   0  0  0  0  0  0  0  0  0  0  0  0
  137.7832  151.8907  143.8937 C   0  0  0  0  0  0  0  0  0  0  0  0
  137.3598  150.5392  144.0619 C   0  0  0  0  0  0  0  0  0  0  0  0
  136.3242  150.4631  145.1222 C   0  0  0  0  0  0  0  0  0  0  0  0
  139.2678  149.7545  142.8033 C   0  0  0  0  0  0  0  0  0  0  0  0
  137.9837  149.5357  143.6343 C   0  0  0  0  0  0  0  0  0  0  0  0
  135.7426  151.6402  145.3948 C   0  0  0  0  0  0  0  0  0  0  0  0
  135.9770  152.7800  144.7224 C   0  0  0  0  0  0  0  0  0  0  0  0
  137.2568  153.0197  144.2916 C   0  0  0  0  0  0  0  0  0  0  0  0
  1  2  1  0
  2  3  2  0
  3  4  1  0
  4  5  2  0
  1  6  1  0
  4  7  1  0
  6  7  2  0
  5  8  1  0
  8  9  2  0
  3 10  1  0
  9 10  1  0
M  END
$$$$

     RDKit          3D

 10 10  0  0  0  0  0  0  0  0999 V2000
  139.2621  151.0930  142.4042 C   0  0  0  0  0  0  0  0  0  0  0  0
  138.8616  152.1304  142.9039 C   0  0  0  0  0  0  0  0  0  0  0  0
  137.9119  151.7966  143.7821 C   0  0  0  0  0  0  0  0  0  0  0  0
  138.8318  150.4014  141.6013 C   0  0  0  0  0  0  0  0  0  0  0  0
  137.6882  149.9441  141.7473 C   0  0  0  0  0  0  0  0  0  0  0  0
  136.7295  151.0149  143.4791 C   0  0  0  0  0  0  0  0  0  0  0  0
  136.5888  150.2155  142.5543 C   0  0  0  0  0  0  0  0  0  0  0  0
  135.5784  151.3652  144.6032 C   0  0  0  0  0  0  0  0  0  0  0  0
  139.6507  149.6511  140.4109 C   0  0  0  0  0  0  0  0  0  0  0  0
  140.1636  150.3913  139.5780 C   0  0  0  0  0  0  0  0  0  0  0  0
  1  2  1  0
  2  3  2  0
  1  4  2  0
  4  5  1  0
  3  6  1  0
  5  7  1  0
  6  7  2  0
  6  8  1  0
  4  9  1  0
  9 10  2  0
M  END
$$$$

     RDKit          3D

 10 11  0  0  0  0  0  0  0  0999 V2000
  138.9705  151.3131  142.5679 C   0  0  0  0  0  0  0  0  0  0  0  0
  138.6042  152.0888  143.2654 C   0  0  0  0  0  0  0  0  0  0  0  0
  137.6600  151.8318  144.0475 C   0  0  0  0  0  0  0  0  0  0  0  0
  138.4063  149.9008  142.6343 C   0  0  0  0  0  0  0  0  0  0  0  0
  137.0753  152.8701  144.9694 C   0  0  0  0  0  0  0  0  0  0  0  0
  135.8065  152.7064  145.6054 C   0  0  0  0  0  0  0  0  0  0  0  0
  136.6355  150.6806  144.4295 C   0  0  0  0  0  0  0  0  0  0  0  0
  135.6932  150.6425  145.2594 C   0  0  0  0  0  0  0  0  0  0  0  0
  135.2296  151.7505  145.8490 C   0  0  0  0  0  0  0  0  0  0  0  0
  137.3824  149.5949  143.5612 N   0  0  0  0  0  0  0  0  0  0  0  0
  1  2  2  0
  2  3  1  0
  1  4  1  0
  3  5  1  0
  5  6  2  0
  3  7  2  0
  7  8  1  0
  6  9  1  0
  8  9  2  0
  4 10  1  0
  7 10  1  0
M  END
$$$$

     RDKit          3D

 10 10  0  0  0  0  0  0  0  0999 V2000
  139.2621  151.0930  142.4042 C   0  0  0  0  0  0  0  0  0  0  0  0
  138.8616  152.1304  142.9039 C   0  0  0  0  0  0  0  0  0  0  0  0
  137.9119  151.7966  143.7821 C   0  0  0  0  0  0  0  0  0  0  0  0
  138.8318  150.4014  141.6013 C   0  0  0  0  0  0  0  0  0  0  0  0
  137.6882  149.9441  141.7473 C   0  0  0  0  0  0  0  0  0  0  0  0
  136.7295  151.0149  143.4791 C   0  0  0  0  0  0  0  0  0  0  0  0
  137.1335  149.1046  140.5445 C   0  0  0  0  0  0  0  0  0  0  0  0
  136.6451  150.2326  142.4949 C   0  0  0  0  0  0  0  0  0  0  0  0
  135.7340  151.3374  144.5323 C   0  0  0  0  0  0  0  0  0  0  0  0
  135.9886  152.0259  145.5329 O   0  0  0  0  0  0  0  0  0  0  0  0
  1  2  1  0
  2  3  2  0
  1  4  2  0
  4  5  1  0
  3  6  1  0
  5  7  1  0
  5  8  2  0
  6  8  1  0
  6  9  1  0
  9 10  2  0
M  END
$$$$

     RDKit          3D

 10  9  0  0  0  0  0  0  0  0999 V2000
  139.5350  150.8913  142.2315 C   0  0  0  0  0  0  0  0  0  0  0  0
  139.0135  150.3971  141.0590 C   0  0  0  0  0  0  0  0  0  0  0  0
  138.6977  150.9503  143.4041 C   0  0  0  0  0  0  0  0  0  0  0  0
  137.7106  149.9444  141.0466 C   0  0  0  0  0  0  0  0  0  0  0  0
  137.5168  150.9379  143.4786 C   0  0  0  0  0  0  0  0  0  0  0  0
  136.6712  151.1288  144.6803 C   0  0  0  0  0  0  0  0  0  0  0  0
  139.9778  150.4403  139.9186 C   0  0  0  0  0  0  0  0  0  0  0  0
  135.5917  151.9312  144.4988 C   0  0  0  0  0  0  0  0  0  0  0  0
  135.4489  152.8084  145.6311 C   0  0  0  0  0  0  0  0  0  0  0  0
  137.1280  149.5009  139.8548 C   0  0  0  0  0  0  0  0  0  0  0  0
  1  2  2  3
  1  3  1  0
  2  4  1  0
  3  5  2  3
  5  6  1  0
  2  7  1  0
  6  8  1  0
  8  9  1  0
  4 10  2  0
M  END
$$$$

     RDKit          3D

 10 10  0  0  0  0  0  0  0  0999 V2000
  140.3038  150.2150  139.4785 Cl  0  0  0  0  0  0  0  0  0  0  0  0
  138.6786  150.1874  140.5317 C   0  0  0  0  0  0  0  0  0  0  0  0
  137.6385  149.3840  140.0946 C   0  0  0  0  0  0  0  0  0  0  0  0
  138.7732  150.9300  141.6509 C   0  0  0  0  0  0  0  0  0  0  0  0
  137.6842  150.8851  142.5415 C   0  0  0  0  0  0  0  0  0  0  0  0
  137.6718  148.8757  138.7125 C   0  0  0  0  0  0  0  0  0  0  0  0
  136.4474  149.3794  140.9008 C   0  0  0  0  0  0  0  0  0  0  0  0
  135.2821  148.8362  140.5287 C   0  0  0  0  0  0  0  0  0  0  0  0
  136.5252  150.1629  142.1832 C   0  0  0  0  0  0  0  0  0  0  0  0
  137.7226  151.5719  144.0689 Cl  0  0  0  0  0  0  0  0  0  0  0  0
  1  2  1  0
  2  3  1  0
  2  4  2  0
  4  5  1  0
  3  6  1  0
  3  7  2  0
  7  8  1  0
  5  9  2  0
  7  9  1  0
  5 10  1  0
M  END
$$$$

     RDKit          3D

 10 11  0  0  0  0  0  0  0  0999 V2000
  139.2621  151.0930  142.4042 C   0  0  0  0  0  0  0  0  0  0  0  0
  138.8616  152.1304  142.9039 C   0  0  0  0  0  0  0  0  0  0  0  0
  137.7832  151.8907  143.8937 C   0  0  0  0  0  0  0  0  0  0  0  0
  137.3598  150.5392  144.0619 C   0  0  0  0  0  0  0  0  0  0  0  0
  136.3242  150.4631  145.1222 C   0  0  0  0  0  0  0  0  0  0  0  0
  139.2678  149.7545  142.8033 C   0  0  0  0  0  0  0  0  0  0  0  0
  137.9837  149.5357  143.6343 C   0  0  0  0  0  0  0  0  0  0  0  0
  135.7426  151.6402  145.3948 C   0  0  0  0  0  0  0  0  0  0  0  0
  136.9309  152.8315  144.5603 C   0  0  0  0  0  0  0  0  0  0  0  0
  140.0754  151.4117  140.9993 C   0  0  0  0  0  0  0  0  0  0  0  0
  1  2  1  0
  2  3  2  0
  3  4  1  0
  4  5  2  0
  1  6  1  0
  4  7  1  0
  6  7  2  0
  5  8  1  0
  3  9  1  0
  8  9  2  0
  1 10  1  0
M  END
$$$$

     RDKit          3D

 10  9  0  0  0  0  0  0  0  0999 V2000
  140.3038  150.2150  139.4785 Cl  0  0  0  0  0  0  0  0  0  0  0  0
  138.6786  150.1874  140.5317 C   0  0  0  0  0  0  0  0  0  0  0  0
  137.6385  149.3840  140.0946 C   0  0  0  0  0  0  0  0  0  0  0  0
  137.5435  148.9630  138.7458 C   0  0  0  0  0  0  0  0  0  0  0  0
  138.7804  150.7277  141.8680 C   0  0  0  0  0  0  0  0  0  0  0  0
  137.8976  150.5360  142.8526 C   0  0  0  0  0  0  0  0  0  0  0  0
  137.8679  151.2432  143.8098 C   0  0  0  0  0  0  0  0  0  0  0  0
  136.6086  151.6916  144.4899 C   0  0  0  0  0  0  0  0  0  0  0  0
  135.5648  151.8001  143.9329 C   0  0  0  0  0  0  0  0  0  0  0  0
  136.5264  152.3549  145.7717 C   0  0  0  0  0  0  0  0  0  0  0  0
  1  2  1  0
  2  3  2  3
  3  4  1  0
  2  5  1  0
  5  6  2  3
  6  7  1  0
  7  8  1  0
  8  9  2  0
  8 10  1  0
M  END
$$$$

     RDKit          3D

 11 12  0  0  0  0  0  0  0  0999 V2000
  139.2621  151.0930  142.4042 C   0  0  0  0  0  0  0  0  0  0  0  0
  138.8616  152.1304  142.9039 C   0  0  0  0  0  0  0  0  0  0  0  0
  137.7832  151.8907  143.8937 C   0  0  0  0  0  0  0  0  0  0  0  0
  138.6288  149.7794  142.4933 C   0  0  0  0  0  0  0  0  0  0  0  0
  137.3135  153.0103  144.6672 C   0  0  0  0  0  0  0  0  0  0  0  0
  136.0160  152.9304  145.3412 C   0  0  0  0  0  0  0  0  0  0  0  0
  135.3275  151.7300  145.1897 C   0  0  0  0  0  0  0  0  0  0  0  0
  137.4781  149.7816  143.3886 C   0  0  0  0  0  0  0  0  0  0  0  0
  137.1252  150.6409  144.1095 C   0  0  0  0  0  0  0  0  0  0  0  0
  134.1320  151.7083  145.9935 C   0  0  0  0  0  0  0  0  0  0  0  0
  136.1913  150.6656  144.8610 C   0  0  0  0  0  0  0  0  0  0  0  0
  1  2  1  0
  2  3  2  0
  1  4  2  0
  3  5  1  0
  5  6  2  0
  6  7  1  0
  4  8  1  0
  3  9  1  0
  8  9  2  0
  7 10  1  0
  7 11  2  0
  9 11  1  0
M  END
$$$$

     RDKit          3D

 11 12  0  0  0  0  0  0  0  0999 V2000
  138.7090  151.1480  142.6270 C   0  0  0  0  0  0  0  0  0  0  0  0
  138.5232  151.9372  143.5110 C   0  0  0  0  0  0  0  0  0  0  0  0
  137.3801  151.6562  144.3958 C   0  0  0  0  0  0  0  0  0  0  0  0
  139.7036  151.1026  141.6212 C   0  0  0  0  0  0  0  0  0  0  0  0
  136.7239  150.4190  144.0179 C   0  0  0  0  0  0  0  0  0  0  0  0
  137.9015  150.0241  142.3223 C   0  0  0  0  0  0  0  0  0  0  0  0
  138.2278  149.2932  141.1442 C   0  0  0  0  0  0  0  0  0  0  0  0
  136.9445  149.6821  143.0247 C   0  0  0  0  0  0  0  0  0  0  0  0
  137.0946  152.5090  145.4858 O   0  0  0  0  0  0  0  0  0  0  0  0
  136.5821  153.7251  145.1166 C   0  0  0  0  0  0  0  0  0  0  0  0
  139.6098  150.4311  140.5201 C   0  0  0  0  0  0  0  0  0  0  0  0
  1  2  1  0
  2  3  2  0
  1  4  1  0
  3  5  1  0
  1  6  2  0
  6  7  1  0
  5  8  2  0
  6  8  1  0
  3  9  1  0
  9 10  1  0
  4 11  2  0
  7 11  1  0
M  END
$$$$

     RDKit          3D

 11 12  0  0  0  0  0  0  0  0999 V2000
  138.9705  151.3131  142.5679 C   0  0  0  0  0  0  0  0  0  0  0  0
  138.6042  152.0888  143.2654 C   0  0  0  0  0  0  0  0  0  0  0  0
  137.4887  151.7640  144.1910 C   0  0  0  0  0  0  0  0  0  0  0  0
  137.1673  150.4135  144.2710 C   0  0  0  0  0  0  0  0  0  0  0  0
  136.7837  152.6380  145.0886 C   0  0  0  0  0  0  0  0  0  0  0  0
  138.5889  149.8386  142.4057 C   0  0  0  0  0  0  0  0  0  0  0  0
  137.0939  153.8636  145.1629 C   0  0  0  0  0  0  0  0  0  0  0  0
  136.3490  149.8987  145.2768 C   0  0  0  0  0  0  0  0  0  0  0  0
  135.5839  152.2254  145.7081 C   0  0  0  0  0  0  0  0  0  0  0  0
  135.5977  150.8404  145.9241 C   0  0  0  0  0  0  0  0  0  0  0  0
  137.8569  149.5324  143.3492 C   0  0  0  0  0  0  0  0  0  0  0  0
  1  2  1  0
  2  3  2  0
  3  4  1  0
  3  5  1  0
  1  6  2  0
  5  7  1  0
  4  8  1  0
  5  9  2  0
  8 10  2  0
  9 10  1  0
  4 11  2  0
  6 11  1  0
M  END
$$$$

     RDKit          3D

 11 12  0  0  0  0  0  0  0  0999 V2000
  139.3423  149.9928  140.5892 C   0  0  0  0  0  0  0  0  0  0  0  0
  138.9530  149.9232  139.3662 C   0  0  0  0  0  0  0  0  0  0  0  0
  138.6126  150.1100  141.6424 C   0  0  0  0  0  0  0  0  0  0  0  0
  137.1875  149.8648  141.8313 C   0  0  0  0  0  0  0  0  0  0  0  0
  136.5143  149.7627  140.5785 C   0  0  0  0  0  0  0  0  0  0  0  0
  139.1985  150.3843  143.0722 C   0  0  0  0  0  0  0  0  0  0  0  0
  138.2608  150.9551  144.0720 C   0  0  0  0  0  0  0  0  0  0  0  0
  137.3799  149.6942  139.2508 C   0  0  0  0  0  0  0  0  0  0  0  0
  137.1024  151.3452  143.9380 C   0  0  0  0  0  0  0  0  0  0  0  0
  136.3082  150.4713  142.8774 C   0  0  0  0  0  0  0  0  0  0  0  0
  136.3501  151.3578  145.2666 C   0  0  0  0  0  0  0  0  0  0  0  0
  1  2  2  0
  1  3  1  0
  3  4  1  0
  4  5  2  0
  3  6  1  0
  6  7  2  0
  2  8  1  0
  5  8  1  0
  7  9  1  0
  4 10  1  0
  9 10  1  0
  9 11  1  0
M  END
$$$$

     RDKit          3D

 11 12  0  0  0  0  0  0  0  0999 V2000
  140.3038  150.2150  139.4785 Cl  0  0  0  0  0  0  0  0  0  0  0  0
  138.6786  150.1874  140.5317 C   0  0  0  0  0  0  0  0  0  0  0  0
  137.6385  149.3840  140.0946 C   0  0  0  0  0  0  0  0  0  0  0  0
  139.0347  150.8837  141.6176 C   0  0  0  0  0  0  0  0  0  0  0  0
  136.4870  149.4739  141.0114 C   0  0  0  0  0  0  0  0  0  0  0  0
  136.6060  150.3319  142.1494 C   0  0  0  0  0  0  0  0  0  0  0  0
  135.4599  150.4857  143.0766 C   0  0  0  0  0  0  0  0  0  0  0  0
  137.8590  150.9618  142.5075 C   0  0  0  0  0  0  0  0  0  0  0  0
  135.7658  150.7112  144.3958 C   0  0  0  0  0  0  0  0  0  0  0  0
  136.5222  151.7994  144.8427 C   0  0  0  0  0  0  0  0  0  0  0  0
  137.8026  151.9029  144.1058 C   0  0  0  0  0  0  0  0  0  0  0  0
  1  2  1  0
  2  3  2  0
  2  4  1  0
  3  5  1  0
  5  6  2  0
  6  7  1  0
  4  8  2  0
  6  8  1  0
  7  9  2  0
  9 10  1  0
  8 11  1  0
 10 11  2  0
M  END
$$$$

     RDKit          3D

 11 11  0  0  0  0  0  0  0  0999 V2000
  138.9705  151.3131  142.5679 C   0  0  0  0  0  0  0  0  0  0  0  0
  138.6042  152.0888  143.2654 C   0  0  0  0  0  0  0  0  0  0  0  0
  137.6600  151.8318  144.0475 C   0  0  0  0  0  0  0  0  0  0  0  0
  136.5825  152.7511  144.5734 C   0  0  0  0  0  0  0  0  0  0  0  0
  135.5827  152.5121  145.5093 C   0  0  0  0  0  0  0  0  0  0  0  0
  139.9322  151.4080  141.3737 C   0  0  0  0  0  0  0  0  0  0  0  0
  135.6283  151.0416  145.7979 C   0  0  0  0  0  0  0  0  0  0  0  0
  139.6618  150.7206  140.2290 C   0  0  0  0  0  0  0  0  0  0  0  0
  140.5630  150.5753  139.1590 C   0  0  0  0  0  0  0  0  0  0  0  0
  136.6346  150.1605  145.2857 C   0  0  0  0  0  0  0  0  0  0  0  0
  137.4776  150.4689  144.5754 C   0  0  0  0  0  0  0  0  0  0  0  0
  1  2  2  3
  2  3  1  0
  3  4  1  0
  4  5  2  0
  1  6  1  0
  5  7  1  0
  6  8  2  3
  8  9  1  0
  7 10  2  0
  3 11  2  0
 10 11  1  0
M  END
$$$$

     RDKit          3D

 11 12  0  0  0  0  0  0  0  0999 V2000
  138.7090  151.1480  142.6270 C   0  0  0  0  0  0  0  0  0  0  0  0
  138.5232  151.9372  143.5110 C   0  0  0  0  0  0  0  0  0  0  0  0
  137.3801  151.6562  144.3958 C   0  0  0  0  0  0  0  0  0  0  0  0
  139.7036  151.1026  141.6212 C   0  0  0  0  0  0  0  0  0  0  0  0
  136.7239  150.4190  144.0179 C   0  0  0  0  0  0  0  0  0  0  0  0
  137.9015  150.0241  142.3223 C   0  0  0  0  0  0  0  0  0  0  0  0
  138.2278  149.2932  141.1442 C   0  0  0  0  0  0  0  0  0  0  0  0
  135.6391  150.1367  145.0898 C   0  0  0  0  0  0  0  0  0  0  0  0
  136.8872  149.7665  143.1406 N   0  0  0  0  0  0  0  0  0  0  0  0
  139.5805  150.1759  140.5979 C   0  0  0  0  0  0  0  0  0  0  0  0
  140.2688  150.4135  139.7051 O   0  0  0  0  0  0  0  0  0  0  0  0
  1  2  1  0
  2  3  2  0
  1  4  1  0
  3  5  1  0
  1  6  2  0
  6  7  1  0
  5  8  1  0
  5  9  2  0
  6  9  1  0
  4 10  1  0
  7 10  1  0
 10 11  1  0
M  END
$$$$

     RDKit          3D

 11 11  0  0  0  0  0  0  0  0999 V2000
  140.3038  150.2150  139.4785 Cl  0  0  0  0  0  0  0  0  0  0  0  0
  138.6786  150.1874  140.5317 C   0  0  0  0  0  0  0  0  0  0  0  0
  137.6385  149.3840  140.0946 C   0  0  0  0  0  0  0  0  0  0  0  0
  138.8663  150.7187  141.4505 C   0  0  0  0  0  0  0  0  0  0  0  0
  136.5679  149.5915  140.7717 C   0  0  0  0  0  0  0  0  0  0  0  0
  136.4392  150.3739  141.9168 C   0  0  0  0  0  0  0  0  0  0  0  0
  135.2724  150.5937  142.7496 C   0  0  0  0  0  0  0  0  0  0  0  0
  135.5954  151.2901  144.0210 C   0  0  0  0  0  0  0  0  0  0  0  0
  134.6557  151.6704  144.9628 C   0  0  0  0  0  0  0  0  0  0  0  0
  137.9401  151.0013  142.3269 C   0  0  0  0  0  0  0  0  0  0  0  0
  135.1818  152.2950  146.2418 C   0  0  0  0  0  0  0  0  0  0  0  0
  1  2  1  0
  2  3  2  0
  2  4  1  0
  3  5  1  0
  5  6  2  0
  6  7  1  0
  7  8  2  3
  8  9  1  0
  4 10  2  0
  6 10  1  0
  9 11  1  0
M  END
$$$$

     RDKit          3D

 11 11  0  0  0  0  0  0  0  0999 V2000
  139.2621  151.0930  142.4042 C   0  0  0  0  0  0  0  0  0  0  0  0
  138.8616  152.1304  142.9039 C   0  0  0  0  0  0  0  0  0  0  0  0
  137.7832  151.8907  143.8937 C   0  0  0  0  0  0  0  0  0  0  0  0
  137.3598  150.5392  144.0619 C   0  0  0  0  0  0  0  0  0  0  0  0
  136.3242  150.4631  145.1222 C   0  0  0  0  0  0  0  0  0  0  0  0
  139.2678  149.7545  142.8033 C   0  0  0  0  0  0  0  0  0  0  0  0
  137.9837  149.5357  143.6343 C   0  0  0  0  0  0  0  0  0  0  0  0
  140.3475  151.2537  141.2875 C   0  0  0  0  0  0  0  0  0  0  0  0
  135.4156  151.3182  145.3433 C   0  0  0  0  0  0  0  0  0  0  0  0
  140.0436  150.7136  140.1134 C   0  0  0  0  0  0  0  0  0  0  0  0
  135.0179  152.2403  144.5020 C   0  0  0  0  0  0  0  0  0  0  0  0
  1  2  1  0
  2  3  2  0
  3  4  1  0
  4  5  2  3
  1  6  1  0
  4  7  1  0
  6  7  2  0
  1  8  2  3
  5  9  1  0
  8 10  1  0
  9 11  2  0
M  END
$$$$

     RDKit          3D

 11 12  0  0  0  0  0  0  0  0999 V2000
  138.7090  151.1480  142.6270 C   0  0  0  0  0  0  0  0  0  0  0  0
  138.5232  151.9372  143.5110 C   0  0  0  0  0  0  0  0  0  0  0  0
  137.3801  151.6562  144.3958 C   0  0  0  0  0  0  0  0  0  0  0  0
  139.7036  151.1026  141.6212 C   0  0  0  0  0  0  0  0  0  0  0  0
  136.7239  150.4190  144.0179 C   0  0  0  0  0  0  0  0  0  0  0  0
  137.9015  150.0241  142.3223 C   0  0  0  0  0  0  0  0  0  0  0  0
  138.2278  149.2932  141.1442 C   0  0  0  0  0  0  0  0  0  0  0  0
  135.6391  150.1367  145.0898 C   0  0  0  0  0  0  0  0  0  0  0  0
  139.3231  149.8146  140.3775 C   0  0  0  0  0  0  0  0  0  0  0  0
  140.0640  150.6966  140.6521 C   0  0  0  0  0  0  0  0  0  0  0  0
  136.8185  149.7136  143.1413 N   0  0  0  0  0  0  0  0  0  0  0  0
  1  2  1  0
  2  3  2  0
  1  4  1  0
  3  5  1  0
  1  6  2  0
  6  7  1  0
  5  8  1  0
  7  9  2  0
  4 10  2  0
  9 10  1  0
  5 11  2  0
  6 11  1  0
M  END
$$$$

     RDKit          3D

 11 12  0  0  0  0  0  0  0  0999 V2000
  140.3038  150.2150  139.4785 Cl  0  0  0  0  0  0  0  0  0  0  0  0
  138.6786  150.1874  140.5317 C   0  0  0  0  0  0  0  0  0  0  0  0
  137.6385  149.3840  140.0946 C   0  0  0  0  0  0  0  0  0  0  0  0
  139.0347  150.8837  141.6176 C   0  0  0  0  0  0  0  0  0  0  0  0
  138.0498  150.8352  142.6903 C   0  0  0  0  0  0  0  0  0  0  0  0
  136.8411  150.0647  142.4034 C   0  0  0  0  0  0  0  0  0  0  0  0
  138.2581  151.5164  144.0216 C   0  0  0  0  0  0  0  0  0  0  0  0
  135.7627  150.2379  143.3682 C   0  0  0  0  0  0  0  0  0  0  0  0
  136.5479  149.5522  141.0861 C   0  0  0  0  0  0  0  0  0  0  0  0
  137.3027  151.8654  144.5788 C   0  0  0  0  0  0  0  0  0  0  0  0
  136.2204  151.2075  144.4866 C   0  0  0  0  0  0  0  0  0  0  0  0
  1  2  1  0
  2  3  2  0
  2  4  1  0
  4  5  2  0
  5  6  1  0
  5  7  1  0
  6  8  1  0
  3  9  1  0
  6  9  2  0
  7 10  1  0
  8 11  1  0
 10 11  2  0
M  END
$$$$

     RDKit          3D

 11 12  0  0  0  0  0  0  0  0999 V2000
  139.5546  150.5070  140.4440 C   0  0  0  0  0  0  0  0  0  0  0  0
  139.2168  150.0150  139.3722 C   0  0  0  0  0  0  0  0  0  0  0  0
  138.8581  150.3073  141.5852 C   0  0  0  0  0  0  0  0  0  0  0  0
  137.9799  149.2986  139.2370 C   0  0  0  0  0  0  0  0  0  0  0  0
  137.5554  148.8167  137.9571 C   0  0  0  0  0  0  0  0  0  0  0  0
  137.1985  149.2486  140.4313 C   0  0  0  0  0  0  0  0  0  0  0  0
  139.3437  150.8849  142.9281 C   0  0  0  0  0  0  0  0  0  0  0  0
  138.3296  151.1409  143.9199 C   0  0  0  0  0  0  0  0  0  0  0  0
  137.0616  150.6228  143.5888 C   0  0  0  0  0  0  0  0  0  0  0  0
  137.5071  149.7764  141.5692 C   0  0  0  0  0  0  0  0  0  0  0  0
  136.6377  149.9962  142.5556 N   0  0  0  0  0  0  0  0  0  0  0  0
  1  2  2  0
  1  3  1  0
  2  4  1  0
  4  5  1  0
  4  6  2  0
  3  7  1  0
  7  8  2  0
  8  9  1  0
  3 10  2  0
  6 10  1  0
  9 11  2  0
 10 11  1  0
M  END
$$$$

     RDKit          3D

 11 12  0  0  0  0  0  0  0  0999 V2000
  138.7090  151.1480  142.6270 C   0  0  0  0  0  0  0  0  0  0  0  0
  138.5232  151.9372  143.5110 C   0  0  0  0  0  0  0  0  0  0  0  0
  137.3801  151.6562  144.3958 C   0  0  0  0  0  0  0  0  0  0  0  0
  139.7036  151.1026  141.6212 C   0  0  0  0  0  0  0  0  0  0  0  0
  136.7239  150.4190  144.0179 C   0  0  0  0  0  0  0  0  0  0  0  0
  137.9015  150.0241  142.3223 C   0  0  0  0  0  0  0  0  0  0  0  0
  138.2278  149.2932  141.1442 C   0  0  0  0  0  0  0  0  0  0  0  0
  137.1510  152.6488  145.4050 C   0  0  0  0  0  0  0  0  0  0  0  0
  135.9440  153.1593  145.3482 C   0  0  0  0  0  0  0  0  0  0  0  0
  136.9377  149.7182  142.8069 N   0  0  0  0  0  0  0  0  0  0  0  0
  139.0522  150.0852  140.3650 C   0  0  0  0  0  0  0  0  0  0  0  0
  1  2  1  0
  2  3  2  0
  1  4  1  0
  3  5  1  0
  1  6  2  0
  6  7  1  0
  3  8  1  0
  8  9  1  0
  5 10  1  0
  6 10  1  0
  4 11  1  0
  7 11  1  0
M  END
$$$$

     RDKit          3D

 11 12  0  0  0  0  0  0  0  0999 V2000
  139.2621  151.0930  142.4042 C   0  0  0  0  0  0  0  0  0  0  0  0
  138.8616  152.1304  142.9039 C   0  0  0  0  0  0  0  0  0  0  0  0
  137.7832  151.8907  143.8937 C   0  0  0  0  0  0  0  0  0  0  0  0
  137.3598  150.5392  144.0619 C   0  0  0  0  0  0  0  0  0  0  0  0
  136.3242  150.4631  145.1222 C   0  0  0  0  0  0  0  0  0  0  0  0
  139.2678  149.7545  142.8033 C   0  0  0  0  0  0  0  0  0  0  0  0
  137.9837  149.5357  143.6343 C   0  0  0  0  0  0  0  0  0  0  0  0
  135.7426  151.6402  145.3948 C   0  0  0  0  0  0  0  0  0  0  0  0
  140.2731  151.3448  141.2429 C   0  0  0  0  0  0  0  0  0  0  0  0
  136.9212  152.7844  144.6899 C   0  0  0  0  0  0  0  0  0  0  0  0
  139.9374  150.4961  140.0033 C   0  0  0  0  0  0  0  0  0  0  0  0
  1  2  1  0
  2  3  2  0
  3  4  1  0
  4  5  2  0
  1  6  1  0
  4  7  1  0
  6  7  2  0
  5  8  1  0
  1  9  1  0
  3 10  1  0
  8 10  2  0
  9 11  1  0
M  END
$$$$

     RDKit          3D

 11 12  0  0  0  0  0  0  0  0999 V2000
  138.9705  151.3131  142.5679 C   0  0  0  0  0  0  0  0  0  0  0  0
  138.6042  152.0888  143.2654 C   0  0  0  0  0  0  0  0  0  0  0  0
  137.6273  151.7082  144.0681 C   0  0  0  0  0  0  0  0  0  0  0  0
  137.2534  150.3600  144.1198 C   0  0  0  0  0  0  0  0  0  0  0  0
  136.8411  152.5522  145.0781 C   0  0  0  0  0  0  0  0  0  0  0  0
  138.5500  149.9189  142.4304 C   0  0  0  0  0  0  0  0  0  0  0  0
  135.6585  152.0704  145.5970 C   0  0  0  0  0  0  0  0  0  0  0  0
  136.3115  149.9939  145.1725 C   0  0  0  0  0  0  0  0  0  0  0  0
  135.5514  150.7341  145.9185 C   0  0  0  0  0  0  0  0  0  0  0  0
  137.7766  149.5207  143.2955 N   0  0  0  0  0  0  0  0  0  0  0  0
  134.7345  153.0649  146.1087 C   0  0  0  0  0  0  0  0  0  0  0  0
  1  2  1  0
  2  3  2  0
  3  4  1  0
  3  5  1  0
  1  6  2  0
  5  7  1  0
  4  8  1  0
  7  9  1  0
  8  9  2  0
  4 10  2  0
  6 10  1  0
  7 11  1  0
M  END
$$$$

     RDKit          3D

 11 12  0  0  0  0  0  0  0  0999 V2000
  139.3423  149.9928  140.5892 C   0  0  0  0  0  0  0  0  0  0  0  0
  138.9530  149.9232  139.3662 C   0  0  0  0  0  0  0  0  0  0  0  0
  138.6126  150.1100  141.6424 C   0  0  0  0  0  0  0  0  0  0  0  0
  137.1875  149.8648  141.8313 C   0  0  0  0  0  0  0  0  0  0  0  0
  136.5143  149.7627  140.5785 C   0  0  0  0  0  0  0  0  0  0  0  0
  139.1422  150.4925  143.0862 C   0  0  0  0  0  0  0  0  0  0  0  0
  138.1958  151.0001  144.0544 C   0  0  0  0  0  0  0  0  0  0  0  0
  136.4981  150.0900  143.0284 C   0  0  0  0  0  0  0  0  0  0  0  0
  137.4335  149.6716  139.2520 C   0  0  0  0  0  0  0  0  0  0  0  0
  137.0821  150.6948  144.0712 C   0  0  0  0  0  0  0  0  0  0  0  0
  136.1576  151.1153  145.3558 C   0  0  0  0  0  0  0  0  0  0  0  0
  1  2  2  0
  1  3  1  0
  3  4  1  0
  4  5  2  0
  3  6  1  0
  6  7  2  0
  4  8  1  0
  2  9  1  0
  5  9  1  0
  7 10  1  0
  8 10  2  0
 10 11  1  0
M  END
$$$$

     RDKit          3D

 11 12  0  0  0  0  0  0  0  0999 V2000
  140.3038  150.2150  139.4785 Cl  0  0  0  0  0  0  0  0  0  0  0  0
  138.6786  150.1874  140.5317 C   0  0  0  0  0  0  0  0  0  0  0  0
  137.6385  149.3840  140.0946 C   0  0  0  0  0  0  0  0  0  0  0  0
  139.0347  150.8837  141.6176 C   0  0  0  0  0  0  0  0  0  0  0  0
  138.0498  150.8352  142.6903 C   0  0  0  0  0  0  0  0  0  0  0  0
  136.8411  150.0647  142.4034 C   0  0  0  0  0  0  0  0  0  0  0  0
  135.8019  150.2271  143.4025 C   0  0  0  0  0  0  0  0  0  0  0  0
  136.5590  149.5483  141.0910 C   0  0  0  0  0  0  0  0  0  0  0  0
  138.3537  151.4758  143.9926 C   0  0  0  0  0  0  0  0  0  0  0  0
  137.3967  151.8921  144.6204 C   0  0  0  0  0  0  0  0  0  0  0  0
  136.1830  151.1303  144.5108 C   0  0  0  0  0  0  0  0  0  0  0  0
  1  2  1  0
  2  3  2  0
  2  4  1  0
  4  5  2  0
  5  6  1  0
  6  7  1  0
  3  8  1  0
  6  8  2  0
  5  9  1  0
  9 10  1  0
  7 11  1  0
 10 11  1  0
M  END
$$$$

     RDKit          3D

 11 12  0  0  0  0  0  0  0  0999 V2000
  139.3423  149.9928  140.5892 C   0  0  0  0  0  0  0  0  0  0  0  0
  138.9530  149.9232  139.3662 C   0  0  0  0  0  0  0  0  0  0  0  0
  138.6126  150.1100  141.6424 C   0  0  0  0  0  0  0  0  0  0  0  0
  137.1875  149.8648  141.8313 C   0  0  0  0  0  0  0  0  0  0  0  0
  136.5143  149.7627  140.5785 C   0  0  0  0  0  0  0  0  0  0  0  0
  139.1985  150.3843  143.0722 C   0  0  0  0  0  0  0  0  0  0  0  0
  138.2608  150.9551  144.0720 C   0  0  0  0  0  0  0  0  0  0  0  0
  137.3799  149.6942  139.2508 C   0  0  0  0  0  0  0  0  0  0  0  0
  137.1024  151.3452  143.9380 C   0  0  0  0  0  0  0  0  0  0  0  0
  136.3108  150.7212  142.8514 C   0  0  0  0  0  0  0  0  0  0  0  0
  136.3497  151.5602  145.0403 O   0  0  0  0  0  0  0  0  0  0  0  0
  1  2  2  0
  1  3  1  0
  3  4  1  0
  4  5  2  0
  3  6  1  0
  6  7  2  0
  2  8  1  0
  5  8  1  0
  7  9  1  0
  4 10  1  0
  9 10  1  0
  9 11  1  0
M  END
$$$$

     RDKit          3D

 11 12  0  0  0  0  0  0  0  0999 V2000
  138.7090  151.1480  142.6270 C   0  0  0  0  0  0  0  0  0  0  0  0
  138.5232  151.9372  143.5110 C   0  0  0  0  0  0  0  0  0  0  0  0
  137.3801  151.6562  144.3958 C   0  0  0  0  0  0  0  0  0  0  0  0
  139.7036  151.1026  141.6212 C   0  0  0  0  0  0  0  0  0  0  0  0
  136.7239  150.4190  144.0179 C   0  0  0  0  0  0  0  0  0  0  0  0
  137.9015  150.0241  142.3223 C   0  0  0  0  0  0  0  0  0  0  0  0
  138.2278  149.2932  141.1442 C   0  0  0  0  0  0  0  0  0  0  0  0
  139.7154  150.3015  140.5154 C   0  0  0  0  0  0  0  0  0  0  0  0
  138.9946  149.3589  140.2713 C   0  0  0  0  0  0  0  0  0  0  0  0
  136.8610  149.7207  143.1185 N   0  0  0  0  0  0  0  0  0  0  0  0
  141.0411  150.7142  139.4610 C   0  0  0  0  0  0  0  0  0  0  0  0
  1  2  1  0
  2  3  2  0
  1  4  1  0
  3  5  1  0
  1  6  2  0
  6  7  1  0
  4  8  2  0
  7  9  2  0
  8  9  1  0
  5 10  2  0
  6 10  1  0
  8 11  1  0
M  END
$$$$

     RDKit          3D

 11 11  0  0  0  0  0  0  0  0999 V2000
  138.9705  151.3131  142.5679 C   0  0  0  0  0  0  0  0  0  0  0  0
  138.6042  152.0888  143.2654 C   0  0  0  0  0  0  0  0  0  0  0  0
  137.4887  151.7640  144.1910 C   0  0  0  0  0  0  0  0  0  0  0  0
  137.1673  150.4135  144.2710 C   0  0  0  0  0  0  0  0  0  0  0  0
  136.7837  152.6380  145.0886 C   0  0  0  0  0  0  0  0  0  0  0  0
  138.5889  149.8386  142.4057 C   0  0  0  0  0  0  0  0  0  0  0  0
  137.0939  153.8636  145.1629 C   0  0  0  0  0  0  0  0  0  0  0  0
  139.0958  149.0319  141.4957 C   0  0  0  0  0  0  0  0  0  0  0  0
  135.6227  152.1509  145.6679 C   0  0  0  0  0  0  0  0  0  0  0  0
  134.7241  153.0206  146.2543 C   0  0  0  0  0  0  0  0  0  0  0  0
  137.6089  149.4773  143.4489 C   0  0  0  0  0  0  0  0  0  0  0  0
  1  2  1  0
  2  3  2  0
  3  4  1  0
  3  5  1  0
  1  6  2  0
  5  7  1  0
  6  8  1  0
  5  9  2  3
  9 10  1  0
  4 11  2  0
  6 11  1  0
M  END
$$$$

     RDKit          3D

 11 12  0  0  0  0  0  0  0  0999 V2000
  140.3038  150.2150  139.4785 Cl  0  0  0  0  0  0  0  0  0  0  0  0
  138.6786  150.1874  140.5317 C   0  0  0  0  0  0  0  0  0  0  0  0
  137.6385  149.3840  140.0946 C   0  0  0  0  0  0  0  0  0  0  0  0
  136.4399  149.4579  140.8211 C   0  0  0  0  0  0  0  0  0  0  0  0
  138.9830  150.6971  141.6805 C   0  0  0  0  0  0  0  0  0  0  0  0
  138.2331  150.9043  142.4752 C   0  0  0  0  0  0  0  0  0  0  0  0
  138.4970  151.5655  143.8665 C   0  0  0  0  0  0  0  0  0  0  0  0
  136.7758  150.4940  142.6016 C   0  0  0  0  0  0  0  0  0  0  0  0
  136.0045  149.9853  141.8528 C   0  0  0  0  0  0  0  0  0  0  0  0
  136.1683  151.1574  143.8641 C   0  0  0  0  0  0  0  0  0  0  0  0
  137.3233  151.6836  144.5499 N   0  0  0  0  0  0  0  0  0  0  0  0
  1  2  1  0
  2  3  2  0
  3  4  1  0
  2  5  1  0
  5  6  2  0
  6  7  1  0
  6  8  1  0
  4  9  2  0
  8  9  1  0
  8 10  2  0
  7 11  2  0
 10 11  1  0
M  END
$$$$

     RDKit          3D

 11 12  0  0  0  0  0  0  0  0999 V2000
  138.7090  151.1480  142.6270 C   0  0  0  0  0  0  0  0  0  0  0  0
  138.5232  151.9372  143.5110 C   0  0  0  0  0  0  0  0  0  0  0  0
  137.3801  151.6562  144.3958 C   0  0  0  0  0  0  0  0  0  0  0  0
  139.7036  151.1026  141.6212 C   0  0  0  0  0  0  0  0  0  0  0  0
  136.7239  150.4190  144.0179 C   0  0  0  0  0  0  0  0  0  0  0  0
  137.9015  150.0241  142.3223 C   0  0  0  0  0  0  0  0  0  0  0  0
  138.2278  149.2932  141.1442 C   0  0  0  0  0  0  0  0  0  0  0  0
  137.1510  152.6488  145.4050 C   0  0  0  0  0  0  0  0  0  0  0  0
  135.9440  153.1593  145.3482 C   0  0  0  0  0  0  0  0  0  0  0  0
  136.9032  149.8004  143.1909 N   0  0  0  0  0  0  0  0  0  0  0  0
  139.3167  149.9086  140.4946 C   0  0  0  0  0  0  0  0  0  0  0  0
  1  2  1  0
  2  3  2  0
  1  4  1  0
  3  5  1  0
  1  6  2  0
  6  7  1  0
  3  8  1  0
  8  9  1  0
  5 10  2  0
  6 10  1  0
  4 11  2  0
  7 11  1  0
M  END
$$$$

     RDKit          3D

 11 11  0  0  0  0  0  0  0  0999 V2000
  140.3038  150.2150  139.4785 Cl  0  0  0  0  0  0  0  0  0  0  0  0
  138.6786  150.1874  140.5317 C   0  0  0  0  0  0  0  0  0  0  0  0
  137.6385  149.3840  140.0946 C   0  0  0  0  0  0  0  0  0  0  0  0
  139.2404  150.7160  141.5759 C   0  0  0  0  0  0  0  0  0  0  0  0
  138.2225  150.6931  142.6929 C   0  0  0  0  0  0  0  0  0  0  0  0
  136.9613  150.0836  142.4469 C   0  0  0  0  0  0  0  0  0  0  0  0
  135.9487  150.2526  143.4885 C   0  0  0  0  0  0  0  0  0  0  0  0
  136.6148  149.5894  141.1116 C   0  0  0  0  0  0  0  0  0  0  0  0
  136.5018  150.3383  144.7727 C   0  0  0  0  0  0  0  0  0  0  0  0
  136.0771  151.6167  145.5556 C   0  0  0  0  0  0  0  0  0  0  0  0
  136.6525  152.7328  145.1447 C   0  0  0  0  0  0  0  0  0  0  0  0
  1  2  1  0
  2  3  1  0
  2  4  2  0
  4  5  1  0
  5  6  2  0
  6  7  1  0
  3  8  2  0
  6  8  1  0
  7  9  1  0
  9 10  1  0
 10 11  2  0
M  END
$$$$

     RDKit          3D

 11 12  0  0  0  0  0  0  0  0999 V2000
  138.9705  151.3131  142.5679 C   0  0  0  0  0  0  0  0  0  0  0  0
  138.6042  152.0888  143.2654 C   0  0  0  0  0  0  0  0  0  0  0  0
  137.6600  151.8318  144.0475 C   0  0  0  0  0  0  0  0  0  0  0  0
  138.4063  149.9008  142.6343 C   0  0  0  0  0  0  0  0  0  0  0  0
  137.0753  152.8701  144.9694 C   0  0  0  0  0  0  0  0  0  0  0  0
  135.8065  152.7064  145.6054 C   0  0  0  0  0  0  0  0  0  0  0  0
  136.6355  150.6806  144.4295 C   0  0  0  0  0  0  0  0  0  0  0  0
  135.2145  151.5088  145.5149 C   0  0  0  0  0  0  0  0  0  0  0  0
  133.9561  151.3992  146.3469 C   0  0  0  0  0  0  0  0  0  0  0  0
  135.7585  150.2633  145.0937 C   0  0  0  0  0  0  0  0  0  0  0  0
  137.4789  149.5617  143.4324 N   0  0  0  0  0  0  0  0  0  0  0  0
  1  2  2  0
  2  3  1  0
  1  4  1  0
  3  5  1  0
  5  6  2  0
  3  7  2  0
  6  8  1  0
  8  9  1  0
  7 10  1  0
  8 10  2  0
  4 11  1  0
  7 11  1  0
M  END
$$$$

     RDKit          3D

 11 12  0  0  0  0  0  0  0  0999 V2000
  140.3038  150.2150  139.4785 Cl  0  0  0  0  0  0  0  0  0  0  0  0
  138.6786  150.1874  140.5317 C   0  0  0  0  0  0  0  0  0  0  0  0
  137.6385  149.3840  140.0946 C   0  0  0  0  0  0  0  0  0  0  0  0
  136.4399  149.4579  140.8211 C   0  0  0  0  0  0  0  0  0  0  0  0
  138.9830  150.6971  141.6805 C   0  0  0  0  0  0  0  0  0  0  0  0
  138.2331  150.9043  142.4752 C   0  0  0  0  0  0  0  0  0  0  0  0
  138.4970  151.5655  143.8665 C   0  0  0  0  0  0  0  0  0  0  0  0
  136.7758  150.4940  142.6016 C   0  0  0  0  0  0  0  0  0  0  0  0
  136.1550  151.1059  143.8266 C   0  0  0  0  0  0  0  0  0  0  0  0
  137.0597  151.3808  144.9133 C   0  0  0  0  0  0  0  0  0  0  0  0
  135.9544  150.0555  141.7834 C   0  0  0  0  0  0  0  0  0  0  0  0
  1  2  1  0
  2  3  2  0
  3  4  1  0
  2  5  1  0
  5  6  2  0
  6  7  1  0
  6  8  1  0
  8  9  1  0
  7 10  1  0
  9 10  1  0
  4 11  1  0
  8 11  1  0
M  END
$$$$

     RDKit          3D

 11 11  0  0  0  0  0  0  0  0999 V2000
  140.3038  150.2150  139.4785 Cl  0  0  0  0  0  0  0  0  0  0  0  0
  138.6786  150.1874  140.5317 C   0  0  0  0  0  0  0  0  0  0  0  0
  137.6385  149.3840  140.0946 C   0  0  0  0  0  0  0  0  0  0  0  0
  138.7732  150.9300  141.6509 C   0  0  0  0  0  0  0  0  0  0  0  0
  137.6842  150.8851  142.5415 C   0  0  0  0  0  0  0  0  0  0  0  0
  136.4777  149.3730  140.9233 C   0  0  0  0  0  0  0  0  0  0  0  0
  135.2235  148.8639  140.5858 C   0  0  0  0  0  0  0  0  0  0  0  0
  137.8466  151.5979  143.8589 C   0  0  0  0  0  0  0  0  0  0  0  0
  136.6173  150.1923  142.1905 C   0  0  0  0  0  0  0  0  0  0  0  0
  138.8320  152.3447  144.1515 C   0  0  0  0  0  0  0  0  0  0  0  0
  136.6907  151.2477  144.6342 C   0  0  0  0  0  0  0  0  0  0  0  0
  1  2  1  0
  2  3  1  0
  2  4  2  0
  4  5  1  0
  3  6  2  0
  6  7  1  0
  5  8  1  0
  5  9  2  0
  6  9  1  0
  8 10  2  0
  8 11  1  0
M  END
$$$$

     RDKit          3D

 11 12  0  0  0  0  0  0  0  0999 V2000
  139.3423  149.9928  140.5892 C   0  0  0  0  0  0  0  0  0  0  0  0
  138.9530  149.9232  139.3662 C   0  0  0  0  0  0  0  0  0  0  0  0
  138.6126  150.1100  141.6424 C   0  0  0  0  0  0  0  0  0  0  0  0
  137.1875  149.8648  141.8313 C   0  0  0  0  0  0  0  0  0  0  0  0
  136.5143  149.7627  140.5785 C   0  0  0  0  0  0  0  0  0  0  0  0
  139.1751  150.3995  143.1329 C   0  0  0  0  0  0  0  0  0  0  0  0
  138.2221  150.9725  144.0846 C   0  0  0  0  0  0  0  0  0  0  0  0
  136.9301  150.9606  143.8481 C   0  0  0  0  0  0  0  0  0  0  0  0
  136.3022  150.3107  142.8172 C   0  0  0  0  0  0  0  0  0  0  0  0
  136.1770  151.7285  144.7927 O   0  0  0  0  0  0  0  0  0  0  0  0
  137.4212  149.6193  139.3049 C   0  0  0  0  0  0  0  0  0  0  0  0
  1  2  2  0
  1  3  1  0
  3  4  1  0
  4  5  2  0
  3  6  1  0
  6  7  2  0
  7  8  1  0
  4  9  1  0
  8  9  1  0
  8 10  2  0
  2 11  1  0
  5 11  1  0
M  END
$$$$

     RDKit          3D

 11 12  0  0  0  0  0  0  0  0999 V2000
  139.3423  149.9928  140.5892 C   0  0  0  0  0  0  0  0  0  0  0  0
  138.9530  149.9232  139.3662 C   0  0  0  0  0  0  0  0  0  0  0  0
  138.6126  150.1100  141.6424 C   0  0  0  0  0  0  0  0  0  0  0  0
  137.1875  149.8648  141.8313 C   0  0  0  0  0  0  0  0  0  0  0  0
  136.5143  149.7627  140.5785 C   0  0  0  0  0  0  0  0  0  0  0  0
  139.1422  150.4925  143.0862 C   0  0  0  0  0  0  0  0  0  0  0  0
  138.1958  151.0001  144.0544 C   0  0  0  0  0  0  0  0  0  0  0  0
  136.4981  150.0900  143.0284 C   0  0  0  0  0  0  0  0  0  0  0  0
  137.4335  149.6716  139.2520 C   0  0  0  0  0  0  0  0  0  0  0  0
  137.0821  150.6948  144.0712 C   0  0  0  0  0  0  0  0  0  0  0  0
  136.0276  151.0718  145.4042 Cl  0  0  0  0  0  0  0  0  0  0  0  0
  1  2  2  0
  1  3  1  0
  3  4  1  0
  4  5  2  0
  3  6  1  0
  6  7  2  0
  4  8  1  0
  2  9  1  0
  5  9  1  0
  7 10  1  0
  8 10  2  0
 10 11  1  0
M  END
$$$$

     RDKit          3D

 11 12  0  0  0  0  0  0  0  0999 V2000
  138.9705  151.3131  142.5679 C   0  0  0  0  0  0  0  0  0  0  0  0
  138.6042  152.0888  143.2654 C   0  0  0  0  0  0  0  0  0  0  0  0
  137.6600  151.8318  144.0475 C   0  0  0  0  0  0  0  0  0  0  0  0
  139.9937  151.3538  141.4312 C   0  0  0  0  0  0  0  0  0  0  0  0
  137.4841  150.6607  144.8972 C   0  0  0  0  0  0  0  0  0  0  0  0
  139.6563  150.7262  140.2643 C   0  0  0  0  0  0  0  0  0  0  0  0
  138.5002  150.0432  140.1976 C   0  0  0  0  0  0  0  0  0  0  0  0
  138.1256  150.0241  142.1727 C   0  0  0  0  0  0  0  0  0  0  0  0
  137.7860  149.5471  141.1852 C   0  0  0  0  0  0  0  0  0  0  0  0
  137.3965  149.6778  143.7139 C   0  0  0  0  0  0  0  0  0  0  0  0
  138.0162  149.9267  138.8206 O   0  0  0  0  0  0  0  0  0  0  0  0
  1  2  2  0
  2  3  1  0
  1  4  1  0
  3  5  2  0
  4  6  2  0
  6  7  1  0
  1  8  1  0
  7  9  1  0
  8  9  1  0
  5 10  1  0
  8 10  2  0
  7 11  2  0
M  END
$$$$

     RDKit          3D

 11 12  0  0  0  0  0  0  0  0999 V2000
  138.7090  151.1480  142.6270 C   0  0  0  0  0  0  0  0  0  0  0  0
  138.5232  151.9372  143.5110 C   0  0  0  0  0  0  0  0  0  0  0  0
  137.3801  151.6562  144.3958 C   0  0  0  0  0  0  0  0  0  0  0  0
  139.7036  151.1026  141.6212 C   0  0  0  0  0  0  0  0  0  0  0  0
  136.7239  150.4190  144.0179 C   0  0  0  0  0  0  0  0  0  0  0  0
  137.9015  150.0241  142.3223 C   0  0  0  0  0  0  0  0  0  0  0  0
  138.2278  149.2932  141.1442 C   0  0  0  0  0  0  0  0  0  0  0  0
  136.9445  149.6821  143.0247 C   0  0  0  0  0  0  0  0  0  0  0  0
  137.0946  152.5090  145.4858 O   0  0  0  0  0  0  0  0  0  0  0  0
  136.5821  153.7251  145.1166 C   0  0  0  0  0  0  0  0  0  0  0  0
  139.4045  149.9495  140.5201 C   0  0  0  0  0  0  0  0  0  0  0  0
  1  2  1  0
  2  3  2  0
  1  4  1  0
  3  5  1  0
  1  6  2  0
  6  7  1  0
  5  8  2  0
  6  8  1  0
  3  9  1  0
  9 10  1  0
  4 11  1  0
  7 11  2  0
M  END
$$$$

     RDKit          3D

 11 12  0  0  0  0  0  0  0  0999 V2000
  138.7090  151.1480  142.6270 C   0  0  0  0  0  0  0  0  0  0  0  0
  138.5232  151.9372  143.5110 C   0  0  0  0  0  0  0  0  0  0  0  0
  137.3801  151.6562  144.3958 C   0  0  0  0  0  0  0  0  0  0  0  0
  139.7036  151.1026  141.6212 C   0  0  0  0  0  0  0  0  0  0  0  0
  136.7239  150.4190  144.0179 C   0  0  0  0  0  0  0  0  0  0  0  0
  137.9015  150.0241  142.3223 C   0  0  0  0  0  0  0  0  0  0  0  0
  138.2278  149.2932  141.1442 C   0  0  0  0  0  0  0  0  0  0  0  0
  137.1510  152.6488  145.4050 C   0  0  0  0  0  0  0  0  0  0  0  0
  135.9440  153.1593  145.3482 C   0  0  0  0  0  0  0  0  0  0  0  0
  136.9032  149.8004  143.1909 N   0  0  0  0  0  0  0  0  0  0  0  0
  139.0165  150.0731  140.4533 C   0  0  0  0  0  0  0  0  0  0  0  0
  1  2  1  0
  2  3  2  0
  1  4  1  0
  3  5  1  0
  1  6  2  0
  6  7  1  0
  3  8  1  0
  8  9  1  0
  5 10  2  0
  6 10  1  0
  4 11  2  0
  7 11  2  0
M  END
$$$$

     RDKit          3D

 11 12  0  0  0  0  0  0  0  0999 V2000
  140.3038  150.2150  139.4785 Cl  0  0  0  0  0  0  0  0  0  0  0  0
  138.6786  150.1874  140.5317 C   0  0  0  0  0  0  0  0  0  0  0  0
  137.6385  149.3840  140.0946 C   0  0  0  0  0  0  0  0  0  0  0  0
  139.2404  150.7160  141.5759 C   0  0  0  0  0  0  0  0  0  0  0  0
  138.2225  150.6931  142.6929 C   0  0  0  0  0  0  0  0  0  0  0  0
  136.9613  150.0836  142.4469 C   0  0  0  0  0  0  0  0  0  0  0  0
  135.9487  150.2526  143.4885 C   0  0  0  0  0  0  0  0  0  0  0  0
  136.5588  149.5578  141.1237 C   0  0  0  0  0  0  0  0  0  0  0  0
  136.5098  150.3533  144.7853 C   0  0  0  0  0  0  0  0  0  0  0  0
  137.7743  150.8227  145.0401 C   0  0  0  0  0  0  0  0  0  0  0  0
  138.4660  151.1657  144.0693 C   0  0  0  0  0  0  0  0  0  0  0  0
  1  2  1  0
  2  3  1  0
  2  4  2  0
  4  5  1  0
  5  6  2  0
  6  7  1  0
  3  8  2  0
  6  8  1  0
  7  9  1  0
  9 10  1  0
  5 11  1  0
 10 11  2  0
M  END
$$$$

     RDKit          3D

 11 12  0  0  0  0  0  0  0  0999 V2000
  140.3038  150.2150  139.4785 Cl  0  0  0  0  0  0  0  0  0  0  0  0
  138.6786  150.1874  140.5317 C   0  0  0  0  0  0  0  0  0  0  0  0
  137.6385  149.3840  140.0946 C   0  0  0  0  0  0  0  0  0  0  0  0
  136.4399  149.4579  140.8211 C   0  0  0  0  0  0  0  0  0  0  0  0
  138.9830  150.6971  141.6805 C   0  0  0  0  0  0  0  0  0  0  0  0
  138.2331  150.9043  142.4752 C   0  0  0  0  0  0  0  0  0  0  0  0
  138.4970  151.5655  143.8665 C   0  0  0  0  0  0  0  0  0  0  0  0
  136.7758  150.4940  142.6016 C   0  0  0  0  0  0  0  0  0  0  0  0
  136.1550  151.1059  143.8266 C   0  0  0  0  0  0  0  0  0  0  0  0
  137.0597  151.3808  144.9133 C   0  0  0  0  0  0  0  0  0  0  0  0
  136.0205  150.1867  141.8106 C   0  0  0  0  0  0  0  0  0  0  0  0
  1  2  1  0
  2  3  2  0
  3  4  1  0
  2  5  1  0
  5  6  2  0
  6  7  1  0
  6  8  1  0
  8  9  1  0
  7 10  1  0
  9 10  1  0
  4 11  2  0
  8 11  2  0
M  END
$$$$

     RDKit          3D

 11 12  0  0  0  0  0  0  0  0999 V2000
  138.7090  151.1480  142.6270 C   0  0  0  0  0  0  0  0  0  0  0  0
  138.5232  151.9372  143.5110 C   0  0  0  0  0  0  0  0  0  0  0  0
  137.3801  151.6562  144.3958 C   0  0  0  0  0  0  0  0  0  0  0  0
  139.7036  151.1026  141.6212 C   0  0  0  0  0  0  0  0  0  0  0  0
  136.7239  150.4190  144.0179 C   0  0  0  0  0  0  0  0  0  0  0  0
  137.9015  150.0241  142.3223 C   0  0  0  0  0  0  0  0  0  0  0  0
  138.2278  149.2932  141.1442 C   0  0  0  0  0  0  0  0  0  0  0  0
  139.7154  150.3015  140.5154 C   0  0  0  0  0  0  0  0  0  0  0  0
  138.9946  149.3589  140.2713 C   0  0  0  0  0  0  0  0  0  0  0  0
  136.8610  149.7207  143.1185 N   0  0  0  0  0  0  0  0  0  0  0  0
  141.0845  150.8328  139.3184 Cl  0  0  0  0  0  0  0  0  0  0  0  0
  1  2  1  0
  2  3  2  0
  1  4  1  0
  3  5  1  0
  1  6  2  0
  6  7  1  0
  4  8  2  0
  7  9  2  0
  8  9  1  0
  5 10  2  0
  6 10  1  0
  8 11  1  0
M  END
$$$$

     RDKit          3D

 11 12  0  0  0  0  0  0  0  0999 V2000
  138.7090  151.1480  142.6270 C   0  0  0  0  0  0  0  0  0  0  0  0
  138.5232  151.9372  143.5110 C   0  0  0  0  0  0  0  0  0  0  0  0
  137.3801  151.6562  144.3958 C   0  0  0  0  0  0  0  0  0  0  0  0
  139.7036  151.1026  141.6212 C   0  0  0  0  0  0  0  0  0  0  0  0
  136.7239  150.4190  144.0179 C   0  0  0  0  0  0  0  0  0  0  0  0
  137.9015  150.0241  142.3223 C   0  0  0  0  0  0  0  0  0  0  0  0
  138.2278  149.2932  141.1442 C   0  0  0  0  0  0  0  0  0  0  0  0
  135.6391  150.1367  145.0898 C   0  0  0  0  0  0  0  0  0  0  0  0
  136.8872  149.7665  143.1406 N   0  0  0  0  0  0  0  0  0  0  0  0
  139.5805  150.1759  140.5979 C   0  0  0  0  0  0  0  0  0  0  0  0
  140.2688  150.4135  139.7051 C   0  0  0  0  0  0  0  0  0  0  0  0
  1  2  1  0
  2  3  2  0
  1  4  1  0
  3  5  1  0
  1  6  2  0
  6  7  1  0
  5  8  1  0
  5  9  2  0
  6  9  1  0
  4 10  1  0
  7 10  1  0
 10 11  1  0
M  END
$$$$

     RDKit          3D

 11 11  0  0  0  0  0  0  0  0999 V2000
  138.9705  151.3131  142.5679 C   0  0  0  0  0  0  0  0  0  0  0  0
  138.6042  152.0888  143.2654 C   0  0  0  0  0  0  0  0  0  0  0  0
  137.4887  151.7640  144.1910 C   0  0  0  0  0  0  0  0  0  0  0  0
  137.1673  150.4135  144.2710 C   0  0  0  0  0  0  0  0  0  0  0  0
  136.7837  152.6380  145.0886 C   0  0  0  0  0  0  0  0  0  0  0  0
  138.5889  149.8386  142.4057 C   0  0  0  0  0  0  0  0  0  0  0  0
  137.0939  153.8636  145.1629 C   0  0  0  0  0  0  0  0  0  0  0  0
  139.0958  149.0319  141.4957 C   0  0  0  0  0  0  0  0  0  0  0  0
  135.6227  152.1509  145.6679 C   0  0  0  0  0  0  0  0  0  0  0  0
  134.7241  153.0206  146.2543 C   0  0  0  0  0  0  0  0  0  0  0  0
  137.5891  149.4472  143.4063 N   0  0  0  0  0  0  0  0  0  0  0  0
  1  2  1  0
  2  3  2  0
  3  4  1  0
  3  5  1  0
  1  6  2  0
  5  7  1  0
  6  8  1  0
  5  9  2  3
  9 10  1  0
  4 11  2  0
  6 11  1  0
M  END
$$$$

     RDKit          3D

 11 12  0  0  0  0  0  0  0  0999 V2000
  138.9705  151.3131  142.5679 C   0  0  0  0  0  0  0  0  0  0  0  0
  138.6042  152.0888  143.2654 C   0  0  0  0  0  0  0  0  0  0  0  0
  137.6273  151.7082  144.0681 C   0  0  0  0  0  0  0  0  0  0  0  0
  137.2534  150.3600  144.1198 C   0  0  0  0  0  0  0  0  0  0  0  0
  136.8411  152.5522  145.0781 C   0  0  0  0  0  0  0  0  0  0  0  0
  138.5500  149.9189  142.4304 C   0  0  0  0  0  0  0  0  0  0  0  0
  135.6585  152.0704  145.5970 C   0  0  0  0  0  0  0  0  0  0  0  0
  136.3115  149.9939  145.1725 C   0  0  0  0  0  0  0  0  0  0  0  0
  135.5853  150.8268  145.8937 C   0  0  0  0  0  0  0  0  0  0  0  0
  134.7456  153.1242  146.0190 C   0  0  0  0  0  0  0  0  0  0  0  0
  137.7885  149.4851  143.3906 N   0  0  0  0  0  0  0  0  0  0  0  0
  1  2  1  0
  2  3  2  0
  3  4  1  0
  3  5  1  0
  1  6  2  0
  5  7  1  0
  4  8  1  0
  7  9  1  0
  8  9  2  0
  7 10  2  0
  4 11  2  0
  6 11  1  0
M  END
$$$$

     RDKit          3D

 11 12  0  0  0  0  0  0  0  0999 V2000
  140.3038  150.2150  139.4785 Cl  0  0  0  0  0  0  0  0  0  0  0  0
  138.6786  150.1874  140.5317 C   0  0  0  0  0  0  0  0  0  0  0  0
  137.6385  149.3840  140.0946 C   0  0  0  0  0  0  0  0  0  0  0  0
  136.4399  149.4579  140.8211 C   0  0  0  0  0  0  0  0  0  0  0  0
  138.9830  150.6971  141.6805 C   0  0  0  0  0  0  0  0  0  0  0  0
  138.2331  150.9043  142.4752 C   0  0  0  0  0  0  0  0  0  0  0  0
  138.4970  151.5655  143.8665 C   0  0  0  0  0  0  0  0  0  0  0  0
  136.7758  150.4940  142.6016 C   0  0  0  0  0  0  0  0  0  0  0  0
  136.0204  150.0432  141.8245 C   0  0  0  0  0  0  0  0  0  0  0  0
  136.1862  150.9486  143.8645 N   0  0  0  0  0  0  0  0  0  0  0  0
  137.0931  151.5112  144.6434 C   0  0  0  0  0  0  0  0  0  0  0  0
  1  2  1  0
  2  3  2  0
  3  4  1  0
  2  5  1  0
  5  6  2  0
  6  7  1  0
  6  8  1  0
  4  9  2  0
  8  9  1  0
  8 10  2  0
  7 11  2  0
 10 11  1  0
M  END
$$$$

     RDKit          3D

 11 12  0  0  0  0  0  0  0  0999 V2000
  140.3038  150.2150  139.4785 Cl  0  0  0  0  0  0  0  0  0  0  0  0
  138.6786  150.1874  140.5317 C   0  0  0  0  0  0  0  0  0  0  0  0
  137.6385  149.3840  140.0946 C   0  0  0  0  0  0  0  0  0  0  0  0
  136.4399  149.4579  140.8211 C   0  0  0  0  0  0  0  0  0  0  0  0
  138.9830  150.6971  141.6805 C   0  0  0  0  0  0  0  0  0  0  0  0
  138.2331  150.9043  142.4752 C   0  0  0  0  0  0  0  0  0  0  0  0
  138.4970  151.5655  143.8665 C   0  0  0  0  0  0  0  0  0  0  0  0
  136.7758  150.4940  142.6016 C   0  0  0  0  0  0  0  0  0  0  0  0
  136.0204  150.0432  141.8245 C   0  0  0  0  0  0  0  0  0  0  0  0
  136.1859  151.1775  143.8488 C   0  0  0  0  0  0  0  0  0  0  0  0
  136.9707  151.6098  144.5675 C   0  0  0  0  0  0  0  0  0  0  0  0
  1  2  1  0
  2  3  2  0
  3  4  1  0
  2  5  1  0
  5  6  2  0
  6  7  1  0
  6  8  1  0
  4  9  2  0
  8  9  1  0
  8 10  2  0
  7 11  2  0
 10 11  1  0
M  END
$$$$

     RDKit          3D

 11 11  0  0  0  0  0  0  0  0999 V2000
  139.5546  150.5070  140.4440 C   0  0  0  0  0  0  0  0  0  0  0  0
  139.2168  150.0150  139.3722 C   0  0  0  0  0  0  0  0  0  0  0  0
  138.8581  150.3073  141.5852 C   0  0  0  0  0  0  0  0  0  0  0  0
  139.2290  150.3516  142.8905 C   0  0  0  0  0  0  0  0  0  0  0  0
  138.3519  151.0008  143.9747 C   0  0  0  0  0  0  0  0  0  0  0  0
  137.3998  151.4263  143.6194 C   0  0  0  0  0  0  0  0  0  0  0  0
  136.5329  152.2351  144.5998 C   0  0  0  0  0  0  0  0  0  0  0  0
  136.9466  151.2605  142.2215 C   0  0  0  0  0  0  0  0  0  0  0  0
  135.3507  151.6956  145.0820 C   0  0  0  0  0  0  0  0  0  0  0  0
  137.4572  150.6292  141.4375 C   0  0  0  0  0  0  0  0  0  0  0  0
  134.5515  152.4455  146.0709 C   0  0  0  0  0  0  0  0  0  0  0  0
  1  2  2  0
  1  3  1  0
  3  4  1  0
  4  5  2  0
  5  6  1  0
  6  7  1  0
  6  8  2  0
  7  9  2  3
  3 10  2  0
  8 10  1  0
  9 11  1  0
M  END
$$$$

     RDKit          3D

 11 12  0  0  0  0  0  0  0  0999 V2000
  140.3038  150.2150  139.4785 Cl  0  0  0  0  0  0  0  0  0  0  0  0
  138.6786  150.1874  140.5317 C   0  0  0  0  0  0  0  0  0  0  0  0
  137.6385  149.3840  140.0946 C   0  0  0  0  0  0  0  0  0  0  0  0
  136.4399  149.4579  140.8211 C   0  0  0  0  0  0  0  0  0  0  0  0
  138.9830  150.6971  141.6805 C   0  0  0  0  0  0  0  0  0  0  0  0
  138.2331  150.9043  142.4752 C   0  0  0  0  0  0  0  0  0  0  0  0
  138.4970  151.5655  143.8665 C   0  0  0  0  0  0  0  0  0  0  0  0
  136.7758  150.4940  142.6016 C   0  0  0  0  0  0  0  0  0  0  0  0
  136.0045  149.9853  141.8528 C   0  0  0  0  0  0  0  0  0  0  0  0
  137.5525  151.7224  144.8079 C   0  0  0  0  0  0  0  0  0  0  0  0
  136.3033  151.2610  144.2809 C   0  0  0  0  0  0  0  0  0  0  0  0
  1  2  1  0
  2  3  2  0
  3  4  1  0
  2  5  1  0
  5  6  2  0
  6  7  1  0
  6  8  1  0
  4  9  2  0
  8  9  1  0
  7 10  2  0
  8 11  1  0
 10 11  1  0
M  END
$$$$

     RDKit          3D

 11 11  0  0  0  0  0  0  0  0999 V2000
  140.3038  150.2150  139.4785 Cl  0  0  0  0  0  0  0  0  0  0  0  0
  138.6786  150.1874  140.5317 C   0  0  0  0  0  0  0  0  0  0  0  0
  137.6385  149.3840  140.0946 C   0  0  0  0  0  0  0  0  0  0  0  0
  138.8663  150.7187  141.4505 C   0  0  0  0  0  0  0  0  0  0  0  0
  137.8215  150.8029  142.5157 C   0  0  0  0  0  0  0  0  0  0  0  0
  136.6690  150.0407  142.1961 C   0  0  0  0  0  0  0  0  0  0  0  0
  137.4948  148.7965  138.8646 C   0  0  0  0  0  0  0  0  0  0  0  0
  136.3822  149.5499  140.9912 C   0  0  0  0  0  0  0  0  0  0  0  0
  137.9101  151.4566  143.8133 C   0  0  0  0  0  0  0  0  0  0  0  0
  136.8474  151.6651  144.5797 C   0  0  0  0  0  0  0  0  0  0  0  0
  136.4413  151.2163  145.6617 C   0  0  0  0  0  0  0  0  0  0  0  0
  1  2  1  0
  2  3  2  0
  2  4  1  0
  4  5  2  0
  5  6  1  0
  3  7  1  0
  3  8  1  0
  6  8  2  0
  5  9  1  0
  9 10  1  0
 10 11  2  0
M  END
$$$$

     RDKit          3D

 11 11  0  0  0  0  0  0  0  0999 V2000
  140.3038  150.2150  139.4785 Cl  0  0  0  0  0  0  0  0  0  0  0  0
  138.6786  150.1874  140.5317 C   0  0  0  0  0  0  0  0  0  0  0  0
  137.6385  149.3840  140.0946 C   0  0  0  0  0  0  0  0  0  0  0  0
  138.7732  150.9300  141.6509 C   0  0  0  0  0  0  0  0  0  0  0  0
  137.6842  150.8851  142.5415 C   0  0  0  0  0  0  0  0  0  0  0  0
  137.8367  151.5228  143.8907 C   0  0  0  0  0  0  0  0  0  0  0  0
  136.6459  150.1059  142.0575 C   0  0  0  0  0  0  0  0  0  0  0  0
  138.8378  152.0889  144.2793 O   0  0  0  0  0  0  0  0  0  0  0  0
  136.8476  151.4783  144.7730 O   0  0  0  0  0  0  0  0  0  0  0  0
  137.6818  148.7856  138.8905 C   0  0  0  0  0  0  0  0  0  0  0  0
  136.4138  149.5719  140.8896 C   0  0  0  0  0  0  0  0  0  0  0  0
  1  2  1  0
  2  3  1  0
  2  4  2  0
  4  5  1  0
  5  6  1  0
  5  7  2  0
  6  8  2  0
  6  9  1  0
  3 10  1  0
  3 11  2  0
  7 11  1  0
M  END
$$$$

     RDKit          3D

 11 12  0  0  0  0  0  0  0  0999 V2000
  138.7090  151.1480  142.6270 C   0  0  0  0  0  0  0  0  0  0  0  0
  138.5232  151.9372  143.5110 C   0  0  0  0  0  0  0  0  0  0  0  0
  137.3801  151.6562  144.3958 C   0  0  0  0  0  0  0  0  0  0  0  0
  139.7036  151.1026  141.6212 C   0  0  0  0  0  0  0  0  0  0  0  0
  136.7239  150.4190  144.0179 C   0  0  0  0  0  0  0  0  0  0  0  0
  137.9015  150.0241  142.3223 C   0  0  0  0  0  0  0  0  0  0  0  0
  138.2278  149.2932  141.1442 C   0  0  0  0  0  0  0  0  0  0  0  0
  137.1510  152.6488  145.4050 C   0  0  0  0  0  0  0  0  0  0  0  0
  135.9440  153.1593  145.3482 C   0  0  0  0  0  0  0  0  0  0  0  0
  136.9377  149.7182  142.8069 N   0  0  0  0  0  0  0  0  0  0  0  0
  139.0626  150.0721  140.4114 C   0  0  0  0  0  0  0  0  0  0  0  0
  1  2  1  0
  2  3  2  0
  1  4  1  0
  3  5  1  0
  1  6  2  0
  6  7  1  0
  3  8  1  0
  8  9  1  0
  5 10  2  0
  6 10  1  0
  4 11  1  0
  7 11  2  0
M  END
$$$$

     RDKit          3D

 11 11  0  0  0  0  0  0  0  0999 V2000
  140.3038  150.2150  139.4785 Cl  0  0  0  0  0  0  0  0  0  0  0  0
  138.6786  150.1874  140.5317 C   0  0  0  0  0  0  0  0  0  0  0  0
  137.6385  149.3840  140.0946 C   0  0  0  0  0  0  0  0  0  0  0  0
  139.0347  150.8837  141.6176 C   0  0  0  0  0  0  0  0  0  0  0  0
  136.4870  149.4739  141.0114 C   0  0  0  0  0  0  0  0  0  0  0  0
  136.6060  150.3319  142.1494 C   0  0  0  0  0  0  0  0  0  0  0  0
  135.4599  150.4857  143.0766 C   0  0  0  0  0  0  0  0  0  0  0  0
  135.8731  151.2537  144.3106 C   0  0  0  0  0  0  0  0  0  0  0  0
  134.8714  151.8852  145.0898 C   0  0  0  0  0  0  0  0  0  0  0  0
  135.3458  152.8952  146.1432 C   0  0  0  0  0  0  0  0  0  0  0  0
  137.9119  150.9617  142.4292 C   0  0  0  0  0  0  0  0  0  0  0  0
  1  2  1  0
  2  3  2  0
  2  4  1  0
  3  5  1  0
  5  6  2  0
  6  7  1  0
  7  8  1  0
  8  9  1  0
  9 10  1  0
  4 11  2  0
  6 11  1  0
M  END
$$$$

     RDKit          3D

 11 11  0  0  0  0  0  0  0  0999 V2000
  138.9705  151.3131  142.5679 C   0  0  0  0  0  0  0  0  0  0  0  0
  138.6042  152.0888  143.2654 C   0  0  0  0  0  0  0  0  0  0  0  0
  137.6600  151.8318  144.0475 C   0  0  0  0  0  0  0  0  0  0  0  0
  136.5825  152.7511  144.5734 C   0  0  0  0  0  0  0  0  0  0  0  0
  135.5827  152.5121  145.5093 C   0  0  0  0  0  0  0  0  0  0  0  0
  139.9322  151.4080  141.3737 C   0  0  0  0  0  0  0  0  0  0  0  0
  135.6283  151.0416  145.7979 C   0  0  0  0  0  0  0  0  0  0  0  0
  137.2301  150.4558  144.6296 C   0  0  0  0  0  0  0  0  0  0  0  0
  139.6769  150.6734  140.2596 C   0  0  0  0  0  0  0  0  0  0  0  0
  136.3633  150.1384  145.4714 C   0  0  0  0  0  0  0  0  0  0  0  0
  140.6225  150.2452  139.3772 C   0  0  0  0  0  0  0  0  0  0  0  0
  1  2  2  3
  2  3  1  0
  3  4  1  0
  4  5  2  0
  1  6  1  0
  5  7  1  0
  3  8  2  0
  6  9  1  0
  7 10  2  0
  8 10  1  0
  9 11  1  0
M  END
$$$$

     RDKit          3D

 11 12  0  0  0  0  0  0  0  0999 V2000
  138.9705  151.3131  142.5679 C   0  0  0  0  0  0  0  0  0  0  0  0
  138.6042  152.0888  143.2654 C   0  0  0  0  0  0  0  0  0  0  0  0
  137.4887  151.7640  144.1910 C   0  0  0  0  0  0  0  0  0  0  0  0
  137.1673  150.4135  144.2710 C   0  0  0  0  0  0  0  0  0  0  0  0
  136.7837  152.6380  145.0886 C   0  0  0  0  0  0  0  0  0  0  0  0
  138.5889  149.8386  142.4057 C   0  0  0  0  0  0  0  0  0  0  0  0
  137.0939  153.8636  145.1629 C   0  0  0  0  0  0  0  0  0  0  0  0
  136.3490  149.8987  145.2768 C   0  0  0  0  0  0  0  0  0  0  0  0
  135.5839  152.2254  145.7081 C   0  0  0  0  0  0  0  0  0  0  0  0
  135.5977  150.8404  145.9241 C   0  0  0  0  0  0  0  0  0  0  0  0
  137.8569  149.5324  143.3492 N   0  0  0  0  0  0  0  0  0  0  0  0
  1  2  1  0
  2  3  2  0
  3  4  1  0
  3  5  1  0
  1  6  2  0
  5  7  1  0
  4  8  1  0
  5  9  2  0
  8 10  2  0
  9 10  1  0
  4 11  2  0
  6 11  1  0
M  END
$$$$

     RDKit          3D

 11 11  0  0  0  0  0  0  0  0999 V2000
  139.2621  151.0930  142.4042 C   0  0  0  0  0  0  0  0  0  0  0  0
  138.8616  152.1304  142.9039 C   0  0  0  0  0  0  0  0  0  0  0  0
  137.7832  151.8907  143.8937 C   0  0  0  0  0  0  0  0  0  0  0  0
  137.3598  150.5392  144.0619 C   0  0  0  0  0  0  0  0  0  0  0  0
  136.3242  150.4631  145.1222 C   0  0  0  0  0  0  0  0  0  0  0  0
  139.2678  149.7545  142.8033 C   0  0  0  0  0  0  0  0  0  0  0  0
  137.9837  149.5357  143.6343 C   0  0  0  0  0  0  0  0  0  0  0  0
  140.3475  151.2537  141.2875 C   0  0  0  0  0  0  0  0  0  0  0  0
  135.4156  151.3182  145.3433 C   0  0  0  0  0  0  0  0  0  0  0  0
  134.8640  151.5864  146.6416 C   0  0  0  0  0  0  0  0  0  0  0  0
  140.3449  150.4021  140.1988 C   0  0  0  0  0  0  0  0  0  0  0  0
  1  2  1  0
  2  3  2  0
  3  4  1  0
  4  5  2  3
  1  6  1  0
  4  7  1  0
  6  7  2  0
  1  8  2  3
  5  9  1  0
  9 10  1  0
  8 11  1  0
M  END
$$$$

     RDKit          3D

 11 11  0  0  0  0  0  0  0  0999 V2000
  138.9705  151.3131  142.5679 C   0  0  0  0  0  0  0  0  0  0  0  0
  138.6042  152.0888  143.2654 C   0  0  0  0  0  0  0  0  0  0  0  0
  137.4887  151.7640  144.1910 C   0  0  0  0  0  0  0  0  0  0  0  0
  139.9944  151.3872  141.4253 C   0  0  0  0  0  0  0  0  0  0  0  0
  139.7073  150.7352  140.2228 C   0  0  0  0  0  0  0  0  0  0  0  0
  138.5884  149.8115  140.3759 C   0  0  0  0  0  0  0  0  0  0  0  0
  138.2222  149.9917  142.3886 C   0  0  0  0  0  0  0  0  0  0  0  0
  138.1098  149.1916  139.1265 C   0  0  0  0  0  0  0  0  0  0  0  0
  137.0652  152.7504  145.1357 C   0  0  0  0  0  0  0  0  0  0  0  0
  137.9150  149.4994  141.5144 C   0  0  0  0  0  0  0  0  0  0  0  0
  135.7561  152.6718  145.7053 C   0  0  0  0  0  0  0  0  0  0  0  0
  1  2  1  0
  2  3  2  3
  1  4  1  0
  4  5  2  0
  5  6  1  0
  1  7  2  0
  6  8  1  0
  3  9  1  0
  6 10  2  0
  7 10  1  0
  9 11  1  0
M  END
$$$$

     RDKit          3D

 11 12  0  0  0  0  0  0  0  0999 V2000
  139.3423  149.9928  140.5892 C   0  0  0  0  0  0  0  0  0  0  0  0
  138.9530  149.9232  139.3662 C   0  0  0  0  0  0  0  0  0  0  0  0
  138.6126  150.1100  141.6424 C   0  0  0  0  0  0  0  0  0  0  0  0
  137.1875  149.8648  141.8313 C   0  0  0  0  0  0  0  0  0  0  0  0
  136.5143  149.7627  140.5785 C   0  0  0  0  0  0  0  0  0  0  0  0
  139.1422  150.4925  143.0862 C   0  0  0  0  0  0  0  0  0  0  0  0
  138.1958  151.0001  144.0544 C   0  0  0  0  0  0  0  0  0  0  0  0
  139.6674  149.8808  138.1647 C   0  0  0  0  0  0  0  0  0  0  0  0
  135.0347  149.6399  140.5194 C   0  0  0  0  0  0  0  0  0  0  0  0
  136.8306  150.3406  143.1296 C   0  0  0  0  0  0  0  0  0  0  0  0
  137.3764  149.6658  139.3051 C   0  0  0  0  0  0  0  0  0  0  0  0
  1  2  2  0
  1  3  1  0
  3  4  1  0
  4  5  2  0
  3  6  1  0
  6  7  2  0
  2  8  1  0
  5  9  1  0
  4 10  1  0
  7 10  1  0
  2 11  1  0
  5 11  1  0
M  END
$$$$

     RDKit          3D

 11 12  0  0  0  0  0  0  0  0999 V2000
  140.3038  150.2150  139.4785 Cl  0  0  0  0  0  0  0  0  0  0  0  0
  138.6786  150.1874  140.5317 C   0  0  0  0  0  0  0  0  0  0  0  0
  137.6385  149.3840  140.0946 C   0  0  0  0  0  0  0  0  0  0  0  0
  136.4399  149.4579  140.8211 C   0  0  0  0  0  0  0  0  0  0  0  0
  138.9830  150.6971  141.6805 C   0  0  0  0  0  0  0  0  0  0  0  0
  138.2331  150.9043  142.4752 C   0  0  0  0  0  0  0  0  0  0  0  0
  138.4970  151.5655  143.8665 C   0  0  0  0  0  0  0  0  0  0  0  0
  136.7758  150.4940  142.6016 C   0  0  0  0  0  0  0  0  0  0  0  0
  136.1550  151.1059  143.8266 C   0  0  0  0  0  0  0  0  0  0  0  0
  136.9637  151.7241  144.7677 C   0  0  0  0  0  0  0  0  0  0  0  0
  136.0063  150.1756  141.8493 C   0  0  0  0  0  0  0  0  0  0  0  0
  1  2  1  0
  2  3  2  0
  3  4  1  0
  2  5  1  0
  5  6  2  0
  6  7  1  0
  6  8  1  0
  8  9  1  0
  7 10  1  0
  9 10  1  0
  4 11  2  0
  8 11  1  0
M  END
$$$$

     RDKit          3D

 11 11  0  0  0  0  0  0  0  0999 V2000
  138.9705  151.3131  142.5679 C   0  0  0  0  0  0  0  0  0  0  0  0
  138.6042  152.0888  143.2654 C   0  0  0  0  0  0  0  0  0  0  0  0
  137.6600  151.8318  144.0475 C   0  0  0  0  0  0  0  0  0  0  0  0
  136.5825  152.7511  144.5734 C   0  0  0  0  0  0  0  0  0  0  0  0
  135.5827  152.5121  145.5093 C   0  0  0  0  0  0  0  0  0  0  0  0
  139.9322  151.4080  141.3737 C   0  0  0  0  0  0  0  0  0  0  0  0
  135.6283  151.0416  145.7979 C   0  0  0  0  0  0  0  0  0  0  0  0
  137.2911  150.5061  144.5502 C   0  0  0  0  0  0  0  0  0  0  0  0
  136.4853  150.1986  145.4320 C   0  0  0  0  0  0  0  0  0  0  0  0
  139.6697  150.6621  140.2407 C   0  0  0  0  0  0  0  0  0  0  0  0
  140.6378  150.2032  139.3979 C   0  0  0  0  0  0  0  0  0  0  0  0
  1  2  2  3
  2  3  1  0
  3  4  1  0
  4  5  2  0
  1  6  1  0
  5  7  1  0
  3  8  2  0
  7  9  2  0
  8  9  1  0
  6 10  1  0
 10 11  2  0
M  END
$$$$

     RDKit          3D

 11 12  0  0  0  0  0  0  0  0999 V2000
  140.3038  150.2150  139.4785 Cl  0  0  0  0  0  0  0  0  0  0  0  0
  138.6786  150.1874  140.5317 C   0  0  0  0  0  0  0  0  0  0  0  0
  137.6385  149.3840  140.0946 C   0  0  0  0  0  0  0  0  0  0  0  0
  138.8663  150.7187  141.4505 C   0  0  0  0  0  0  0  0  0  0  0  0
  136.5679  149.5915  140.7717 C   0  0  0  0  0  0  0  0  0  0  0  0
  136.4392  150.3739  141.9168 C   0  0  0  0  0  0  0  0  0  0  0  0
  135.2724  150.5937  142.7496 C   0  0  0  0  0  0  0  0  0  0  0  0
  137.7274  150.9737  142.4013 C   0  0  0  0  0  0  0  0  0  0  0  0
  135.4723  150.7071  144.1100 C   0  0  0  0  0  0  0  0  0  0  0  0
  136.6985  150.6520  144.7719 C   0  0  0  0  0  0  0  0  0  0  0  0
  137.6281  151.4835  144.0431 C   0  0  0  0  0  0  0  0  0  0  0  0
  1  2  1  0
  2  3  2  0
  2  4  1  0
  3  5  1  0
  5  6  2  0
  6  7  1  0
  4  8  2  0
  6  8  1  0
  7  9  2  0
  9 10  1  0
  8 11  1  0
 10 11  1  0
M  END
$$$$

     RDKit          3D

 11 11  0  0  0  0  0  0  0  0999 V2000
  140.3038  150.2150  139.4785 Cl  0  0  0  0  0  0  0  0  0  0  0  0
  138.6786  150.1874  140.5317 C   0  0  0  0  0  0  0  0  0  0  0  0
  137.6385  149.3840  140.0946 C   0  0  0  0  0  0  0  0  0  0  0  0
  137.5435  148.9630  138.7458 C   0  0  0  0  0  0  0  0  0  0  0  0
  138.4874  150.4382  141.7160 C   0  0  0  0  0  0  0  0  0  0  0  0
  137.4116  150.4246  142.5549 C   0  0  0  0  0  0  0  0  0  0  0  0
  136.4512  149.4738  140.9083 C   0  0  0  0  0  0  0  0  0  0  0  0
  136.3378  149.9387  142.1014 C   0  0  0  0  0  0  0  0  0  0  0  0
  137.4606  151.1352  144.0652 C   0  0  0  0  0  0  0  0  0  0  0  0
  136.3691  151.6647  144.5441 C   0  0  0  0  0  0  0  0  0  0  0  0
  136.1991  151.8143  146.0045 C   0  0  0  0  0  0  0  0  0  0  0  0
  1  2  1  0
  2  3  2  0
  3  4  1  0
  2  5  1  0
  5  6  2  0
  3  7  1  0
  6  8  1  0
  7  8  2  0
  6  9  1  0
  9 10  1  0
 10 11  1  0
M  END
$$$$

     RDKit          3D

 11 12  0  0  0  0  0  0  0  0999 V2000
  138.9705  151.3131  142.5679 C   0  0  0  0  0  0  0  0  0  0  0  0
  138.6042  152.0888  143.2654 C   0  0  0  0  0  0  0  0  0  0  0  0
  137.6273  151.7082  144.0681 C   0  0  0  0  0  0  0  0  0  0  0  0
  137.2534  150.3600  144.1198 C   0  0  0  0  0  0  0  0  0  0  0  0
  136.8411  152.5522  145.0781 C   0  0  0  0  0  0  0  0  0  0  0  0
  138.5500  149.9189  142.4304 C   0  0  0  0  0  0  0  0  0  0  0  0
  135.6585  152.0704  145.5970 C   0  0  0  0  0  0  0  0  0  0  0  0
  136.3115  149.9939  145.1725 C   0  0  0  0  0  0  0  0  0  0  0  0
  137.8492  149.5905  143.2619 N   0  0  0  0  0  0  0  0  0  0  0  0
  135.7212  150.9315  145.8689 C   0  0  0  0  0  0  0  0  0  0  0  0
  134.8027  153.1539  146.2262 C   0  0  0  0  0  0  0  0  0  0  0  0
  1  2  1  0
  2  3  2  0
  3  4  1  0
  3  5  1  0
  1  6  2  0
  5  7  1  0
  4  8  1  0
  4  9  2  0
  6  9  1  0
  7 10  2  0
  8 10  2  0
  7 11  1  0
M  END
$$$$

     RDKit          3D

 11 12  0  0  0  0  0  0  0  0999 V2000
  140.3038  150.2150  139.4785 Cl  0  0  0  0  0  0  0  0  0  0  0  0
  138.6786  150.1874  140.5317 C   0  0  0  0  0  0  0  0  0  0  0  0
  137.6385  149.3840  140.0946 C   0  0  0  0  0  0  0  0  0  0  0  0
  136.4399  149.4579  140.8211 C   0  0  0  0  0  0  0  0  0  0  0  0
  138.9830  150.6971  141.6805 C   0  0  0  0  0  0  0  0  0  0  0  0
  138.2331  150.9043  142.4752 C   0  0  0  0  0  0  0  0  0  0  0  0
  138.4970  151.5655  143.8665 C   0  0  0  0  0  0  0  0  0  0  0  0
  136.7758  150.4940  142.6016 C   0  0  0  0  0  0  0  0  0  0  0  0
  136.1550  151.1059  143.8266 C   0  0  0  0  0  0  0  0  0  0  0  0
  137.0597  151.3808  144.9133 C   0  0  0  0  0  0  0  0  0  0  0  0
  135.9976  150.1858  141.8375 C   0  0  0  0  0  0  0  0  0  0  0  0
  1  2  1  0
  2  3  2  0
  3  4  1  0
  2  5  1  0
  5  6  2  0
  6  7  1  0
  6  8  1  0
  8  9  1  0
  7 10  1  0
  9 10  1  0
  4 11  1  0
  8 11  2  0
M  END
$$$$

     RDKit          3D

 11 12  0  0  0  0  0  0  0  0999 V2000
  138.7090  151.1480  142.6270 C   0  0  0  0  0  0  0  0  0  0  0  0
  138.5232  151.9372  143.5110 C   0  0  0  0  0  0  0  0  0  0  0  0
  137.3801  151.6562  144.3958 C   0  0  0  0  0  0  0  0  0  0  0  0
  139.7036  151.1026  141.6212 C   0  0  0  0  0  0  0  0  0  0  0  0
  136.7239  150.4190  144.0179 C   0  0  0  0  0  0  0  0  0  0  0  0
  137.9015  150.0241  142.3223 C   0  0  0  0  0  0  0  0  0  0  0  0
  138.2278  149.2932  141.1442 C   0  0  0  0  0  0  0  0  0  0  0  0
  136.9445  149.6821  143.0247 C   0  0  0  0  0  0  0  0  0  0  0  0
  137.0946  152.5090  145.4858 O   0  0  0  0  0  0  0  0  0  0  0  0
  136.5821  153.7251  145.1166 C   0  0  0  0  0  0  0  0  0  0  0  0
  139.4045  149.9495  140.5201 C   0  0  0  0  0  0  0  0  0  0  0  0
  1  2  1  0
  2  3  2  0
  1  4  1  0
  3  5  1  0
  1  6  2  0
  6  7  1  0
  5  8  2  0
  6  8  1  0
  3  9  1  0
  9 10  1  0
  4 11  2  0
  7 11  2  0
M  END
$$$$

     RDKit          3D

 12 13  0  0  0  0  0  0  0  0999 V2000
  139.2621  151.0930  142.4042 C   0  0  0  0  0  0  0  0  0  0  0  0
  138.8616  152.1304  142.9039 C   0  0  0  0  0  0  0  0  0  0  0  0
  137.7832  151.8907  143.8937 C   0  0  0  0  0  0  0  0  0  0  0  0
  137.3598  150.5392  144.0619 C   0  0  0  0  0  0  0  0  0  0  0  0
  136.3242  150.4631  145.1222 C   0  0  0  0  0  0  0  0  0  0  0  0
  139.2678  149.7545  142.8033 C   0  0  0  0  0  0  0  0  0  0  0  0
  137.9644  149.6082  143.5715 C   0  0  0  0  0  0  0  0  0  0  0  0
  140.1262  151.3391  140.9873 C   0  0  0  0  0  0  0  0  0  0  0  0
  135.7291  151.6076  145.4204 C   0  0  0  0  0  0  0  0  0  0  0  0
  137.2235  152.9202  144.6668 C   0  0  0  0  0  0  0  0  0  0  0  0
  136.1779  152.7612  145.5181 C   0  0  0  0  0  0  0  0  0  0  0  0
  135.6859  153.8525  146.0603 O   0  0  0  0  0  0  0  0  0  0  0  0
  1  2  1  0
  2  3  2  0
  3  4  1  0
  4  5  2  0
  1  6  1  0
  4  7  1  0
  6  7  2  0
  1  8  1  0
  5  9  1  0
  3 10  1  0
  9 11  1  0
 10 11  1  0
 11 12  2  0
M  END
$$$$

     RDKit          3D

 12 13  0  0  0  0  0  0  0  0999 V2000
  138.7090  151.1480  142.6270 C   0  0  0  0  0  0  0  0  0  0  0  0
  138.5232  151.9372  143.5110 C   0  0  0  0  0  0  0  0  0  0  0  0
  137.3801  151.6562  144.3958 C   0  0  0  0  0  0  0  0  0  0  0  0
  139.7036  151.1026  141.6212 C   0  0  0  0  0  0  0  0  0  0  0  0
  136.7239  150.4190  144.0179 C   0  0  0  0  0  0  0  0  0  0  0  0
  137.9015  150.0241  142.3223 C   0  0  0  0  0  0  0  0  0  0  0  0
  138.2278  149.2932  141.1442 C   0  0  0  0  0  0  0  0  0  0  0  0
  139.7154  150.3015  140.5154 C   0  0  0  0  0  0  0  0  0  0  0  0
  138.9946  149.3589  140.2713 C   0  0  0  0  0  0  0  0  0  0  0  0
  136.8610  149.7207  143.1185 C   0  0  0  0  0  0  0  0  0  0  0  0
  141.0433  150.7250  139.4768 C   0  0  0  0  0  0  0  0  0  0  0  0
  137.0998  152.6423  145.6399 C   0  0  0  0  0  0  0  0  0  0  0  0
  1  2  1  0
  2  3  2  0
  1  4  1  0
  3  5  1  0
  1  6  2  0
  6  7  1  0
  4  8  2  0
  7  9  2  0
  8  9  1  0
  5 10  2  0
  6 10  1  0
  8 11  1  0
  3 12  1  0
M  END
$$$$

     RDKit          3D

 12 13  0  0  0  0  0  0  0  0999 V2000
  138.9705  151.3131  142.5679 C   0  0  0  0  0  0  0  0  0  0  0  0
  138.6042  152.0888  143.2654 C   0  0  0  0  0  0  0  0  0  0  0  0
  137.4887  151.7640  144.1910 C   0  0  0  0  0  0  0  0  0  0  0  0
  137.1673  150.4135  144.2710 C   0  0  0  0  0  0  0  0  0  0  0  0
  136.7837  152.6380  145.0886 C   0  0  0  0  0  0  0  0  0  0  0  0
  138.5889  149.8386  142.4057 C   0  0  0  0  0  0  0  0  0  0  0  0
  137.0939  153.8636  145.1629 C   0  0  0  0  0  0  0  0  0  0  0  0
  139.0958  149.0319  141.4957 C   0  0  0  0  0  0  0  0  0  0  0  0
  135.6368  152.1771  145.3913 C   0  0  0  0  0  0  0  0  0  0  0  0
  135.3317  150.8634  145.3879 C   0  0  0  0  0  0  0  0  0  0  0  0
  135.9558  149.8204  144.9109 C   0  0  0  0  0  0  0  0  0  0  0  0
  137.8008  149.4816  143.3658 N   0  0  0  0  0  0  0  0  0  0  0  0
  1  2  1  0
  2  3  2  0
  3  4  1  0
  3  5  1  0
  1  6  2  0
  5  7  1  0
  6  8  1  0
  5  9  2  0
  9 10  1  0
  4 11  1  0
 10 11  2  0
  4 12  2  0
  6 12  1  0
M  END
$$$$

     RDKit          3D

 12 13  0  0  0  0  0  0  0  0999 V2000
  139.3423  149.9928  140.5892 C   0  0  0  0  0  0  0  0  0  0  0  0
  138.9530  149.9232  139.3662 C   0  0  0  0  0  0  0  0  0  0  0  0
  138.6126  150.1100  141.6424 C   0  0  0  0  0  0  0  0  0  0  0  0
  137.1875  149.8648  141.8313 C   0  0  0  0  0  0  0  0  0  0  0  0
  136.5143  149.7627  140.5785 C   0  0  0  0  0  0  0  0  0  0  0  0
  139.1422  150.4925  143.0862 C   0  0  0  0  0  0  0  0  0  0  0  0
  138.1958  151.0001  144.0544 C   0  0  0  0  0  0  0  0  0  0  0  0
  139.6674  149.8808  138.1647 C   0  0  0  0  0  0  0  0  0  0  0  0
  135.0347  149.6399  140.5194 C   0  0  0  0  0  0  0  0  0  0  0  0
  136.7481  149.6583  139.0966 C   0  0  0  0  0  0  0  0  0  0  0  0
  136.9037  150.3276  143.1072 N   0  0  0  0  0  0  0  0  0  0  0  0
  137.9372  149.7578  138.6089 C   0  0  0  0  0  0  0  0  0  0  0  0
  1  2  2  0
  1  3  1  0
  3  4  1  0
  4  5  2  0
  3  6  1  0
  6  7  2  0
  2  8  1  0
  5  9  1  0
  5 10  1  0
  4 11  1  0
  7 11  1  0
  2 12  1  0
 10 12  1  0
M  END
$$$$

     RDKit          3D

 12 13  0  0  0  0  0  0  0  0999 V2000
  139.3423  149.9928  140.5892 C   0  0  0  0  0  0  0  0  0  0  0  0
  138.9530  149.9232  139.3662 C   0  0  0  0  0  0  0  0  0  0  0  0
  138.6126  150.1100  141.6424 C   0  0  0  0  0  0  0  0  0  0  0  0
  137.1875  149.8648  141.8313 C   0  0  0  0  0  0  0  0  0  0  0  0
  136.5143  149.7627  140.5785 C   0  0  0  0  0  0  0  0  0  0  0  0
  139.1422  150.4925  143.0862 C   0  0  0  0  0  0  0  0  0  0  0  0
  138.1958  151.0001  144.0544 C   0  0  0  0  0  0  0  0  0  0  0  0
  136.9048  150.9691  143.8141 C   0  0  0  0  0  0  0  0  0  0  0  0
  136.2970  150.3281  142.8163 C   0  0  0  0  0  0  0  0  0  0  0  0
  137.3439  149.6290  139.2996 C   0  0  0  0  0  0  0  0  0  0  0  0
  136.0930  151.7670  144.7066 C   0  0  0  0  0  0  0  0  0  0  0  0
  136.2387  153.1239  144.9113 C   0  0  0  0  0  0  0  0  0  0  0  0
  1  2  2  0
  1  3  1  0
  3  4  1  0
  4  5  2  0
  3  6  1  0
  6  7  2  0
  7  8  1  0
  4  9  1  0
  8  9  1  0
  2 10  1  0
  5 10  1  0
  8 11  1  0
 11 12  1  0
M  END
$$$$

     RDKit          3D

 12 13  0  0  0  0  0  0  0  0999 V2000
  140.3038  150.2150  139.4785 Cl  0  0  0  0  0  0  0  0  0  0  0  0
  138.6786  150.1874  140.5317 C   0  0  0  0  0  0  0  0  0  0  0  0
  137.6385  149.3840  140.0946 C   0  0  0  0  0  0  0  0  0  0  0  0
  136.4399  149.4579  140.8211 C   0  0  0  0  0  0  0  0  0  0  0  0
  138.9830  150.6971  141.6805 C   0  0  0  0  0  0  0  0  0  0  0  0
  138.2331  150.9043  142.4752 C   0  0  0  0  0  0  0  0  0  0  0  0
  138.4970  151.5655  143.8665 C   0  0  0  0  0  0  0  0  0  0  0  0
  136.7758  150.4940  142.6016 C   0  0  0  0  0  0  0  0  0  0  0  0
  136.1550  151.1059  143.8266 C   0  0  0  0  0  0  0  0  0  0  0  0
  135.3840  148.8645  139.8139 C   0  0  0  0  0  0  0  0  0  0  0  0
  136.0508  150.1073  141.8004 C   0  0  0  0  0  0  0  0  0  0  0  0
  137.3860  151.6451  144.7082 C   0  0  0  0  0  0  0  0  0  0  0  0
  1  2  1  0
  2  3  2  0
  3  4  1  0
  2  5  1  0
  5  6  2  0
  6  7  1  0
  6  8  1  0
  8  9  1  0
  4 10  1  0
  4 11  2  0
  8 11  1  0
  7 12  1  0
  9 12  1  0
M  END
$$$$

     RDKit          3D

 12 13  0  0  0  0  0  0  0  0999 V2000
  140.3038  150.2150  139.4785 Cl  0  0  0  0  0  0  0  0  0  0  0  0
  138.6786  150.1874  140.5317 C   0  0  0  0  0  0  0  0  0  0  0  0
  137.6385  149.3840  140.0946 C   0  0  0  0  0  0  0  0  0  0  0  0
  136.4399  149.4579  140.8211 C   0  0  0  0  0  0  0  0  0  0  0  0
  139.1335  150.7559  141.5073 C   0  0  0  0  0  0  0  0  0  0  0  0
  138.1148  150.7992  142.6522 C   0  0  0  0  0  0  0  0  0  0  0  0
  135.1531  149.2335  140.4493 C   0  0  0  0  0  0  0  0  0  0  0  0
  138.4182  151.3986  143.9384 C   0  0  0  0  0  0  0  0  0  0  0  0
  136.7814  150.4866  142.9788 C   0  0  0  0  0  0  0  0  0  0  0  0
  136.0718  150.1352  142.0099 C   0  0  0  0  0  0  0  0  0  0  0  0
  136.2628  150.6582  144.2363 C   0  0  0  0  0  0  0  0  0  0  0  0
  137.6458  151.3118  144.9595 C   0  0  0  0  0  0  0  0  0  0  0  0
  1  2  1  0
  2  3  2  0
  3  4  1  0
  2  5  1  0
  5  6  2  0
  4  7  1  0
  6  8  1  0
  6  9  1  0
  4 10  1  0
  9 10  1  0
  9 11  2  0
  8 12  2  0
 11 12  1  0
M  END
$$$$

     RDKit          3D

 12 13  0  0  0  0  0  0  0  0999 V2000
  140.3038  150.2150  139.4785 Cl  0  0  0  0  0  0  0  0  0  0  0  0
  138.6786  150.1874  140.5317 C   0  0  0  0  0  0  0  0  0  0  0  0
  137.6385  149.3840  140.0946 C   0  0  0  0  0  0  0  0  0  0  0  0
  136.4399  149.4579  140.8211 C   0  0  0  0  0  0  0  0  0  0  0  0
  138.9830  150.6971  141.6805 C   0  0  0  0  0  0  0  0  0  0  0  0
  138.2331  150.9043  142.4752 C   0  0  0  0  0  0  0  0  0  0  0  0
  138.4970  151.5655  143.8665 C   0  0  0  0  0  0  0  0  0  0  0  0
  136.7758  150.4940  142.6016 C   0  0  0  0  0  0  0  0  0  0  0  0
  135.3976  148.9102  139.7708 C   0  0  0  0  0  0  0  0  0  0  0  0
  137.4830  151.7026  144.7952 C   0  0  0  0  0  0  0  0  0  0  0  0
  136.1736  151.0699  143.8575 C   0  0  0  0  0  0  0  0  0  0  0  0
  136.0237  150.1220  141.9202 N   0  0  0  0  0  0  0  0  0  0  0  0
  1  2  1  0
  2  3  2  0
  3  4  1  0
  2  5  1  0
  5  6  2  0
  6  7  1  0
  6  8  1  0
  4  9  1  0
  7 10  2  0
  8 11  2  0
 10 11  1  0
  4 12  2  0
  8 12  1  0
M  END
$$$$

     RDKit          3D

 12 13  0  0  0  0  0  0  0  0999 V2000
  138.7090  151.1480  142.6270 C   0  0  0  0  0  0  0  0  0  0  0  0
  138.5232  151.9372  143.5110 C   0  0  0  0  0  0  0  0  0  0  0  0
  137.3801  151.6562  144.3958 C   0  0  0  0  0  0  0  0  0  0  0  0
  139.7036  151.1026  141.6212 C   0  0  0  0  0  0  0  0  0  0  0  0
  136.7239  150.4190  144.0179 C   0  0  0  0  0  0  0  0  0  0  0  0
  137.9015  150.0241  142.3223 C   0  0  0  0  0  0  0  0  0  0  0  0
  138.2278  149.2932  141.1442 C   0  0  0  0  0  0  0  0  0  0  0  0
  135.6391  150.1367  145.0898 C   0  0  0  0  0  0  0  0  0  0  0  0
  139.6548  150.4031  140.4831 C   0  0  0  0  0  0  0  0  0  0  0  0
  136.8422  149.6544  143.0389 N   0  0  0  0  0  0  0  0  0  0  0  0
  138.9727  149.4041  140.2674 C   0  0  0  0  0  0  0  0  0  0  0  0
  140.9056  151.0041  139.2436 Cl  0  0  0  0  0  0  0  0  0  0  0  0
  1  2  1  0
  2  3  2  0
  1  4  1  0
  3  5  1  0
  1  6  2  0
  6  7  1  0
  5  8  1  0
  4  9  2  0
  5 10  2  0
  6 10  1  0
  7 11  2  0
  9 11  1  0
  9 12  1  0
M  END
$$$$

     RDKit          3D

 12 13  0  0  0  0  0  0  0  0999 V2000
  139.3423  149.9928  140.5892 C   0  0  0  0  0  0  0  0  0  0  0  0
  138.9530  149.9232  139.3662 C   0  0  0  0  0  0  0  0  0  0  0  0
  138.6126  150.1100  141.6424 C   0  0  0  0  0  0  0  0  0  0  0  0
  137.1875  149.8648  141.8313 C   0  0  0  0  0  0  0  0  0  0  0  0
  136.5143  149.7627  140.5785 C   0  0  0  0  0  0  0  0  0  0  0  0
  139.1751  150.3995  143.1329 C   0  0  0  0  0  0  0  0  0  0  0  0
  138.2221  150.9725  144.0846 C   0  0  0  0  0  0  0  0  0  0  0  0
  139.6660  149.8809  138.1670 C   0  0  0  0  0  0  0  0  0  0  0  0
  136.9203  150.8967  143.8605 C   0  0  0  0  0  0  0  0  0  0  0  0
  136.2679  150.3845  142.9227 C   0  0  0  0  0  0  0  0  0  0  0  0
  137.4548  149.7050  139.3263 C   0  0  0  0  0  0  0  0  0  0  0  0
  135.9464  151.6150  145.1805 C   0  0  0  0  0  0  0  0  0  0  0  0
  1  2  2  0
  1  3  1  0
  3  4  1  0
  4  5  2  0
  3  6  1  0
  6  7  2  0
  2  8  1  0
  7  9  1  0
  4 10  1  0
  9 10  2  0
  2 11  1  0
  5 11  1  0
  9 12  1  0
M  END
$$$$

     RDKit          3D

 12 13  0  0  0  0  0  0  0  0999 V2000
  138.7090  151.1480  142.6270 C   0  0  0  0  0  0  0  0  0  0  0  0
  138.5232  151.9372  143.5110 C   0  0  0  0  0  0  0  0  0  0  0  0
  137.3801  151.6562  144.3958 C   0  0  0  0  0  0  0  0  0  0  0  0
  139.7036  151.1026  141.6212 C   0  0  0  0  0  0  0  0  0  0  0  0
  136.7239  150.4190  144.0179 C   0  0  0  0  0  0  0  0  0  0  0  0
  137.9015  150.0241  142.3223 C   0  0  0  0  0  0  0  0  0  0  0  0
  138.2278  149.2932  141.1442 C   0  0  0  0  0  0  0  0  0  0  0  0
  135.6391  150.1367  145.0898 C   0  0  0  0  0  0  0  0  0  0  0  0
  139.6548  150.4031  140.4831 C   0  0  0  0  0  0  0  0  0  0  0  0
  140.8625  150.7984  139.5034 C   0  0  0  0  0  0  0  0  0  0  0  0
  136.8865  149.8236  143.2045 N   0  0  0  0  0  0  0  0  0  0  0  0
  138.8851  149.4309  140.2325 C   0  0  0  0  0  0  0  0  0  0  0  0
  1  2  1  0
  2  3  2  0
  1  4  1  0
  3  5  1  0
  1  6  2  0
  6  7  1  0
  5  8  1  0
  4  9  2  0
  9 10  1  0
  5 11  2  0
  6 11  1  0
  7 12  2  0
  9 12  1  0
M  END
$$$$

     RDKit          3D

 12 13  0  0  0  0  0  0  0  0999 V2000
  139.3423  149.9928  140.5892 C   0  0  0  0  0  0  0  0  0  0  0  0
  138.9530  149.9232  139.3662 C   0  0  0  0  0  0  0  0  0  0  0  0
  138.6126  150.1100  141.6424 C   0  0  0  0  0  0  0  0  0  0  0  0
  137.1875  149.8648  141.8313 C   0  0  0  0  0  0  0  0  0  0  0  0
  136.5143  149.7627  140.5785 C   0  0  0  0  0  0  0  0  0  0  0  0
  139.1422  150.4925  143.0862 C   0  0  0  0  0  0  0  0  0  0  0  0
  138.1958  151.0001  144.0544 C   0  0  0  0  0  0  0  0  0  0  0  0
  136.9048  150.9691  143.8141 C   0  0  0  0  0  0  0  0  0  0  0  0
  136.1202  151.4741  145.0117 C   0  0  0  0  0  0  0  0  0  0  0  0
  136.3484  150.2288  142.8738 C   0  0  0  0  0  0  0  0  0  0  0  0
  135.0444  152.1078  144.8577 C   0  0  0  0  0  0  0  0  0  0  0  0
  137.5195  149.6445  139.1136 C   0  0  0  0  0  0  0  0  0  0  0  0
  1  2  2  0
  1  3  1  0
  3  4  1  0
  4  5  2  0
  3  6  1  0
  6  7  2  0
  7  8  1  0
  8  9  1  0
  4 10  1  0
  8 10  2  0
  9 11  2  0
  2 12  1  0
  5 12  1  0
M  END
$$$$

     RDKit          3D

 12 13  0  0  0  0  0  0  0  0999 V2000
  140.3038  150.2150  139.4785 Cl  0  0  0  0  0  0  0  0  0  0  0  0
  138.6786  150.1874  140.5317 C   0  0  0  0  0  0  0  0  0  0  0  0
  137.6385  149.3840  140.0946 C   0  0  0  0  0  0  0  0  0  0  0  0
  138.7732  150.9300  141.6509 C   0  0  0  0  0  0  0  0  0  0  0  0
  138.1259  150.9095  142.4414 C   0  0  0  0  0  0  0  0  0  0  0  0
  136.8263  150.0689  142.3038 C   0  0  0  0  0  0  0  0  0  0  0  0
  138.0570  151.6723  143.9569 C   0  0  0  0  0  0  0  0  0  0  0  0
  135.7559  150.1857  143.2650 C   0  0  0  0  0  0  0  0  0  0  0  0
  137.5176  148.8394  138.8750 C   0  0  0  0  0  0  0  0  0  0  0  0
  137.0338  151.5855  144.7678 C   0  0  0  0  0  0  0  0  0  0  0  0
  135.8767  150.9173  144.4688 C   0  0  0  0  0  0  0  0  0  0  0  0
  136.5679  149.5014  141.0931 C   0  0  0  0  0  0  0  0  0  0  0  0
  1  2  1  0
  2  3  1  0
  2  4  2  0
  4  5  1  0
  5  6  2  0
  5  7  1  0
  6  8  1  0
  3  9  1  0
  7 10  2  0
  8 11  2  0
 10 11  1  0
  3 12  2  0
  6 12  1  0
M  END
$$$$

     RDKit          3D

 12 13  0  0  0  0  0  0  0  0999 V2000
  140.3038  150.2150  139.4785 Cl  0  0  0  0  0  0  0  0  0  0  0  0
  138.6786  150.1874  140.5317 C   0  0  0  0  0  0  0  0  0  0  0  0
  137.6385  149.3840  140.0946 C   0  0  0  0  0  0  0  0  0  0  0  0
  139.2404  150.7160  141.5759 C   0  0  0  0  0  0  0  0  0  0  0  0
  138.2225  150.6931  142.6929 C   0  0  0  0  0  0  0  0  0  0  0  0
  136.9613  150.0836  142.4469 C   0  0  0  0  0  0  0  0  0  0  0  0
  135.9487  150.2526  143.4885 C   0  0  0  0  0  0  0  0  0  0  0  0
  136.3619  151.1927  144.4166 C   0  0  0  0  0  0  0  0  0  0  0  0
  137.5699  151.6788  144.5959 C   0  0  0  0  0  0  0  0  0  0  0  0
  136.5951  149.5043  141.2286 C   0  0  0  0  0  0  0  0  0  0  0  0
  135.3463  151.5228  145.5205 C   0  0  0  0  0  0  0  0  0  0  0  0
  138.5915  151.1998  143.7607 C   0  0  0  0  0  0  0  0  0  0  0  0
  1  2  1  0
  2  3  1  0
  2  4  2  0
  4  5  1  0
  5  6  2  0
  6  7  1  0
  7  8  1  0
  8  9  2  0
  3 10  2  0
  6 10  1  0
  8 11  1  0
  5 12  1  0
  9 12  1  0
M  END
$$$$

     RDKit          3D

 12 12  0  0  0  0  0  0  0  0999 V2000
  138.9705  151.3131  142.5679 C   0  0  0  0  0  0  0  0  0  0  0  0
  138.6042  152.0888  143.2654 C   0  0  0  0  0  0  0  0  0  0  0  0
  137.6600  151.8318  144.0475 C   0  0  0  0  0  0  0  0  0  0  0  0
  136.5825  152.7511  144.5734 C   0  0  0  0  0  0  0  0  0  0  0  0
  135.5827  152.5121  145.5093 C   0  0  0  0  0  0  0  0  0  0  0  0
  139.9322  151.4080  141.3737 C   0  0  0  0  0  0  0  0  0  0  0  0
  135.6283  151.0416  145.7979 C   0  0  0  0  0  0  0  0  0  0  0  0
  139.6618  150.7206  140.2290 C   0  0  0  0  0  0  0  0  0  0  0  0
  140.5630  150.5753  139.1590 C   0  0  0  0  0  0  0  0  0  0  0  0
  137.2098  150.4561  144.6078 C   0  0  0  0  0  0  0  0  0  0  0  0
  138.2516  149.5525  144.1142 O   0  0  0  0  0  0  0  0  0  0  0  0
  136.3232  150.0926  145.4858 C   0  0  0  0  0  0  0  0  0  0  0  0
  1  2  2  3
  2  3  1  0
  3  4  1  0
  4  5  2  0
  1  6  1  0
  5  7  1  0
  6  8  2  3
  8  9  1  0
  3 10  2  0
 10 11  1  0
  7 12  2  0
 10 12  1  0
M  END
$$$$

     RDKit          3D

 12 13  0  0  0  0  0  0  0  0999 V2000
  139.3949  150.7519  142.0137 C   0  0  0  0  0  0  0  0  0  0  0  0
  139.0649  150.4895  140.7536 C   0  0  0  0  0  0  0  0  0  0  0  0
  138.4480  150.6367  143.0431 C   0  0  0  0  0  0  0  0  0  0  0  0
  137.8334  149.9841  140.4385 C   0  0  0  0  0  0  0  0  0  0  0  0
  136.8172  149.7850  141.4636 C   0  0  0  0  0  0  0  0  0  0  0  0
  138.7926  151.0562  144.4368 C   0  0  0  0  0  0  0  0  0  0  0  0
  137.6189  151.6483  145.1213 C   0  0  0  0  0  0  0  0  0  0  0  0
  135.4025  149.5524  141.0431 C   0  0  0  0  0  0  0  0  0  0  0  0
  136.4990  151.6270  144.5439 C   0  0  0  0  0  0  0  0  0  0  0  0
  137.1500  150.4334  142.7316 C   0  0  0  0  0  0  0  0  0  0  0  0
  135.4061  152.3097  145.3537 C   0  0  0  0  0  0  0  0  0  0  0  0
  136.0912  150.7663  143.6061 C   0  0  0  0  0  0  0  0  0  0  0  0
  1  2  2  0
  1  3  1  0
  2  4  1  0
  4  5  2  0
  3  6  1  0
  6  7  2  0
  5  8  1  0
  7  9  1  0
  3 10  2  0
  5 10  1  0
  9 11  1  0
  9 12  2  0
 10 12  1  0
M  END
$$$$

     RDKit          3D

 12 12  0  0  0  0  0  0  0  0999 V2000
  140.3038  150.2150  139.4785 Cl  0  0  0  0  0  0  0  0  0  0  0  0
  138.6786  150.1874  140.5317 C   0  0  0  0  0  0  0  0  0  0  0  0
  137.6385  149.3840  140.0946 C   0  0  0  0  0  0  0  0  0  0  0  0
  138.7506  150.9507  141.6713 C   0  0  0  0  0  0  0  0  0  0  0  0
  136.5527  149.6212  140.7745 C   0  0  0  0  0  0  0  0  0  0  0  0
  135.2919  149.0327  140.1418 C   0  0  0  0  0  0  0  0  0  0  0  0
  136.5287  150.4782  141.8364 C   0  0  0  0  0  0  0  0  0  0  0  0
  135.3193  150.6924  142.7156 C   0  0  0  0  0  0  0  0  0  0  0  0
  137.8940  151.0699  142.3651 C   0  0  0  0  0  0  0  0  0  0  0  0
  135.6051  151.1815  144.0515 C   0  0  0  0  0  0  0  0  0  0  0  0
  134.5411  151.4806  144.9277 C   0  0  0  0  0  0  0  0  0  0  0  0
  134.9547  152.0344  146.2966 C   0  0  0  0  0  0  0  0  0  0  0  0
  1  2  1  0
  2  3  2  0
  2  4  1  0
  3  5  1  0
  5  6  1  0
  5  7  2  0
  7  8  1  0
  4  9  2  0
  7  9  1  0
  8 10  2  3
 10 11  1  0
 11 12  1  0
M  END
$$$$

     RDKit          3D

 12 13  0  0  0  0  0  0  0  0999 V2000
  140.3038  150.2150  139.4785 Cl  0  0  0  0  0  0  0  0  0  0  0  0
  138.6786  150.1874  140.5317 C   0  0  0  0  0  0  0  0  0  0  0  0
  137.6385  149.3840  140.0946 C   0  0  0  0  0  0  0  0  0  0  0  0
  139.0347  150.8837  141.6176 C   0  0  0  0  0  0  0  0  0  0  0  0
  138.0498  150.8352  142.6903 C   0  0  0  0  0  0  0  0  0  0  0  0
  136.8411  150.0647  142.4034 C   0  0  0  0  0  0  0  0  0  0  0  0
  135.8019  150.2271  143.4025 C   0  0  0  0  0  0  0  0  0  0  0  0
  136.5590  149.5483  141.0910 C   0  0  0  0  0  0  0  0  0  0  0  0
  136.2662  151.1910  144.5070 C   0  0  0  0  0  0  0  0  0  0  0  0
  135.8242  151.2377  145.6477 C   0  0  0  0  0  0  0  0  0  0  0  0
  135.1633  152.4987  146.1803 C   0  0  0  0  0  0  0  0  0  0  0  0
  137.9155  151.3418  143.9953 C   0  0  0  0  0  0  0  0  0  0  0  0
  1  2  1  0
  2  3  2  0
  2  4  1  0
  4  5  2  0
  5  6  1  0
  6  7  1  0
  3  8  1  0
  6  8  2  0
  7  9  1  0
  9 10  1  0
 10 11  1  0
  5 12  1  0
  9 12  1  0
M  END
$$$$

     RDKit          3D

 12 13  0  0  0  0  0  0  0  0999 V2000
  140.3038  150.2150  139.4785 Cl  0  0  0  0  0  0  0  0  0  0  0  0
  138.6786  150.1874  140.5317 C   0  0  0  0  0  0  0  0  0  0  0  0
  137.6385  149.3840  140.0946 C   0  0  0  0  0  0  0  0  0  0  0  0
  139.2404  150.7160  141.5759 C   0  0  0  0  0  0  0  0  0  0  0  0
  138.2225  150.6931  142.6929 C   0  0  0  0  0  0  0  0  0  0  0  0
  136.9613  150.0836  142.4469 C   0  0  0  0  0  0  0  0  0  0  0  0
  135.9487  150.2526  143.4885 C   0  0  0  0  0  0  0  0  0  0  0  0
  136.3619  151.1927  144.4166 C   0  0  0  0  0  0  0  0  0  0  0  0
  135.7653  151.7694  145.4030 C   0  0  0  0  0  0  0  0  0  0  0  0
  136.2760  152.9011  146.1753 C   0  0  0  0  0  0  0  0  0  0  0  0
  136.5455  149.5365  141.1563 C   0  0  0  0  0  0  0  0  0  0  0  0
  138.1366  151.2646  144.0526 C   0  0  0  0  0  0  0  0  0  0  0  0
  1  2  1  0
  2  3  1  0
  2  4  2  0
  4  5  1  0
  5  6  2  0
  6  7  1  0
  7  8  1  0
  8  9  2  3
  9 10  1  0
  3 11  2  0
  6 11  1  0
  5 12  1  0
  8 12  1  0
M  END
$$$$

     RDKit          3D

 12 13  0  0  0  0  0  0  0  0999 V2000
  138.7090  151.1480  142.6270 C   0  0  0  0  0  0  0  0  0  0  0  0
  138.5232  151.9372  143.5110 C   0  0  0  0  0  0  0  0  0  0  0  0
  137.3801  151.6562  144.3958 C   0  0  0  0  0  0  0  0  0  0  0  0
  139.7036  151.1026  141.6212 C   0  0  0  0  0  0  0  0  0  0  0  0
  136.7239  150.4190  144.0179 C   0  0  0  0  0  0  0  0  0  0  0  0
  137.9015  150.0241  142.3223 C   0  0  0  0  0  0  0  0  0  0  0  0
  138.2278  149.2932  141.1442 C   0  0  0  0  0  0  0  0  0  0  0  0
  137.1510  152.6488  145.4050 C   0  0  0  0  0  0  0  0  0  0  0  0
  137.0246  149.7011  142.9651 N   0  0  0  0  0  0  0  0  0  0  0  0
  139.6385  150.2652  140.5663 C   0  0  0  0  0  0  0  0  0  0  0  0
  140.1370  150.0450  139.4672 O   0  0  0  0  0  0  0  0  0  0  0  0
  135.7988  152.7556  145.9824 C   0  0  0  0  0  0  0  0  0  0  0  0
  1  2  1  0
  2  3  2  0
  1  4  1  0
  3  5  1  0
  1  6  2  0
  6  7  1  0
  3  8  1  0
  5  9  2  0
  6  9  1  0
  4 10  1  0
  7 10  1  0
 10 11  2  0
  8 12  1  0
M  END
$$$$

     RDKit          3D

 12 13  0  0  0  0  0  0  0  0999 V2000
  138.7090  151.1480  142.6270 C   0  0  0  0  0  0  0  0  0  0  0  0
  138.5232  151.9372  143.5110 C   0  0  0  0  0  0  0  0  0  0  0  0
  137.3801  151.6562  144.3958 C   0  0  0  0  0  0  0  0  0  0  0  0
  139.7036  151.1026  141.6212 C   0  0  0  0  0  0  0  0  0  0  0  0
  136.7239  150.4190  144.0179 C   0  0  0  0  0  0  0  0  0  0  0  0
  137.9015  150.0241  142.3223 C   0  0  0  0  0  0  0  0  0  0  0  0
  138.2278  149.2932  141.1442 C   0  0  0  0  0  0  0  0  0  0  0  0
  136.9445  149.6821  143.0247 C   0  0  0  0  0  0  0  0  0  0  0  0
  139.4120  149.9686  140.5121 C   0  0  0  0  0  0  0  0  0  0  0  0
  140.1974  150.4358  139.6457 O   0  0  0  0  0  0  0  0  0  0  0  0
  137.1065  152.5181  145.4861 O   0  0  0  0  0  0  0  0  0  0  0  0
  136.6050  153.7299  145.1420 C   0  0  0  0  0  0  0  0  0  0  0  0
  1  2  1  0
  2  3  2  0
  1  4  1  0
  3  5  1  0
  1  6  2  0
  6  7  1  0
  5  8  2  0
  6  8  1  0
  4  9  1  0
  7  9  1  0
  9 10  1  0
  3 11  1  0
 11 12  1  0
M  END
$$$$

     RDKit          3D

 12 13  0  0  0  0  0  0  0  0999 V2000
  138.7090  151.1480  142.6270 C   0  0  0  0  0  0  0  0  0  0  0  0
  138.5232  151.9372  143.5110 C   0  0  0  0  0  0  0  0  0  0  0  0
  137.3801  151.6562  144.3958 C   0  0  0  0  0  0  0  0  0  0  0  0
  139.7036  151.1026  141.6212 C   0  0  0  0  0  0  0  0  0  0  0  0
  136.7239  150.4190  144.0179 C   0  0  0  0  0  0  0  0  0  0  0  0
  137.9015  150.0241  142.3223 C   0  0  0  0  0  0  0  0  0  0  0  0
  138.2278  149.2932  141.1442 C   0  0  0  0  0  0  0  0  0  0  0  0
  137.1510  152.6488  145.4050 C   0  0  0  0  0  0  0  0  0  0  0  0
  137.0246  149.7011  142.9651 N   0  0  0  0  0  0  0  0  0  0  0  0
  139.6385  150.2652  140.5663 C   0  0  0  0  0  0  0  0  0  0  0  0
  135.8032  152.7931  145.9837 C   0  0  0  0  0  0  0  0  0  0  0  0
  140.1378  150.0441  139.4686 C   0  0  0  0  0  0  0  0  0  0  0  0
  1  2  1  0
  2  3  2  0
  1  4  1  0
  3  5  1  0
  1  6  2  0
  6  7  1  0
  3  8  1  0
  5  9  2  0
  6  9  1  0
  4 10  1  0
  7 10  1  0
  8 11  1  0
 10 12  2  0
M  END
$$$$

     RDKit          3D

 12 13  0  0  0  0  0  0  0  0999 V2000
  139.5546  150.5070  140.4440 C   0  0  0  0  0  0  0  0  0  0  0  0
  139.2168  150.0150  139.3722 C   0  0  0  0  0  0  0  0  0  0  0  0
  138.8581  150.3073  141.5852 C   0  0  0  0  0  0  0  0  0  0  0  0
  137.9799  149.2986  139.2370 C   0  0  0  0  0  0  0  0  0  0  0  0
  137.1575  149.1630  140.3909 C   0  0  0  0  0  0  0  0  0  0  0  0
  139.3383  150.9197  142.9169 C   0  0  0  0  0  0  0  0  0  0  0  0
  138.3080  151.0871  143.9346 C   0  0  0  0  0  0  0  0  0  0  0  0
  135.7334  148.7642  140.2438 C   0  0  0  0  0  0  0  0  0  0  0  0
  137.1254  150.5266  143.5545 C   0  0  0  0  0  0  0  0  0  0  0  0
  137.4926  149.8038  141.6077 C   0  0  0  0  0  0  0  0  0  0  0  0
  136.1224  150.7843  144.7051 C   0  0  0  0  0  0  0  0  0  0  0  0
  136.8163  149.9569  142.4547 N   0  0  0  0  0  0  0  0  0  0  0  0
  1  2  2  0
  1  3  1  0
  2  4  1  0
  4  5  2  0
  3  6  1  0
  6  7  2  0
  5  8  1  0
  7  9  1  0
  3 10  2  0
  5 10  1  0
  9 11  1  0
  9 12  2  0
 10 12  1  0
M  END
$$$$

     RDKit          3D

 12 13  0  0  0  0  0  0  0  0999 V2000
  140.3038  150.2150  139.4785 Cl  0  0  0  0  0  0  0  0  0  0  0  0
  138.6786  150.1874  140.5317 C   0  0  0  0  0  0  0  0  0  0  0  0
  137.6385  149.3840  140.0946 C   0  0  0  0  0  0  0  0  0  0  0  0
  138.8663  150.7187  141.4505 C   0  0  0  0  0  0  0  0  0  0  0  0
  136.5679  149.5915  140.7717 C   0  0  0  0  0  0  0  0  0  0  0  0
  136.4392  150.3739  141.9168 C   0  0  0  0  0  0  0  0  0  0  0  0
  135.2724  150.5937  142.7496 C   0  0  0  0  0  0  0  0  0  0  0  0
  137.7274  150.9737  142.4013 C   0  0  0  0  0  0  0  0  0  0  0  0
  137.7352  151.6286  143.7912 C   0  0  0  0  0  0  0  0  0  0  0  0
  135.7051  151.2773  143.9002 C   0  0  0  0  0  0  0  0  0  0  0  0
  136.7127  151.7375  144.4707 C   0  0  0  0  0  0  0  0  0  0  0  0
  136.6183  152.4136  145.9754 Cl  0  0  0  0  0  0  0  0  0  0  0  0
  1  2  1  0
  2  3  2  0
  2  4  1  0
  3  5  1  0
  5  6  2  0
  6  7  1  0
  4  8  2  0
  6  8  1  0
  8  9  1  0
  7 10  2  0
  9 11  2  0
 10 11  1  0
 11 12  1  0
M  END
$$$$

     RDKit          3D

 12 13  0  0  0  0  0  0  0  0999 V2000
  140.3038  150.2150  139.4785 Cl  0  0  0  0  0  0  0  0  0  0  0  0
  138.6786  150.1874  140.5317 C   0  0  0  0  0  0  0  0  0  0  0  0
  137.6385  149.3840  140.0946 C   0  0  0  0  0  0  0  0  0  0  0  0
  139.0347  150.8837  141.6176 C   0  0  0  0  0  0  0  0  0  0  0  0
  136.4870  149.4739  141.0114 C   0  0  0  0  0  0  0  0  0  0  0  0
  135.2468  148.9969  140.4739 C   0  0  0  0  0  0  0  0  0  0  0  0
  136.7778  150.2789  142.0941 C   0  0  0  0  0  0  0  0  0  0  0  0
  135.6337  150.4006  143.1290 C   0  0  0  0  0  0  0  0  0  0  0  0
  136.1409  151.1664  144.3898 C   0  0  0  0  0  0  0  0  0  0  0  0
  137.3706  150.7740  144.7332 C   0  0  0  0  0  0  0  0  0  0  0  0
  138.4875  151.0896  143.8113 C   0  0  0  0  0  0  0  0  0  0  0  0
  138.0508  150.8000  142.6162 C   0  0  0  0  0  0  0  0  0  0  0  0
  1  2  1  0
  2  3  2  0
  2  4  1  0
  3  5  1  0
  5  6  1  0
  5  7  2  0
  7  8  1  0
  8  9  1  0
  9 10  2  0
 10 11  1  0
  4 12  2  0
  7 12  1  0
 11 12  1  0
M  END
$$$$

     RDKit          3D

 12 13  0  0  0  0  0  0  0  0999 V2000
  138.7090  151.1480  142.6270 C   0  0  0  0  0  0  0  0  0  0  0  0
  138.5232  151.9372  143.5110 C   0  0  0  0  0  0  0  0  0  0  0  0
  137.3801  151.6562  144.3958 C   0  0  0  0  0  0  0  0  0  0  0  0
  139.7036  151.1026  141.6212 C   0  0  0  0  0  0  0  0  0  0  0  0
  136.7239  150.4190  144.0179 C   0  0  0  0  0  0  0  0  0  0  0  0
  137.9015  150.0241  142.3223 C   0  0  0  0  0  0  0  0  0  0  0  0
  138.2278  149.2932  141.1442 C   0  0  0  0  0  0  0  0  0  0  0  0
  135.6391  150.1367  145.0898 C   0  0  0  0  0  0  0  0  0  0  0  0
  138.9745  149.9797  140.2381 C   0  0  0  0  0  0  0  0  0  0  0  0
  136.9711  149.7460  143.2347 N   0  0  0  0  0  0  0  0  0  0  0  0
  138.9490  149.2904  138.8210 C   0  0  0  0  0  0  0  0  0  0  0  0
  139.9138  150.7751  140.4353 C   0  0  0  0  0  0  0  0  0  0  0  0
  1  2  1  0
  2  3  2  0
  1  4  1  0
  3  5  1  0
  1  6  2  0
  6  7  1  0
  5  8  1  0
  7  9  2  0
  5 10  2  0
  6 10  1  0
  9 11  1  0
  4 12  2  0
  9 12  1  0
M  END
$$$$

     RDKit          3D

 12 13  0  0  0  0  0  0  0  0999 V2000
  138.7090  151.1480  142.6270 C   0  0  0  0  0  0  0  0  0  0  0  0
  138.5232  151.9372  143.5110 C   0  0  0  0  0  0  0  0  0  0  0  0
  137.3801  151.6562  144.3958 C   0  0  0  0  0  0  0  0  0  0  0  0
  139.7036  151.1026  141.6212 C   0  0  0  0  0  0  0  0  0  0  0  0
  136.7239  150.4190  144.0179 C   0  0  0  0  0  0  0  0  0  0  0  0
  137.9015  150.0241  142.3223 C   0  0  0  0  0  0  0  0  0  0  0  0
  138.2278  149.2932  141.1442 C   0  0  0  0  0  0  0  0  0  0  0  0
  139.6343  150.3996  140.4629 C   0  0  0  0  0  0  0  0  0  0  0  0
  136.7976  149.6165  143.1204 C   0  0  0  0  0  0  0  0  0  0  0  0
  138.9657  149.4073  140.2476 C   0  0  0  0  0  0  0  0  0  0  0  0
  140.9229  150.8468  139.4360 C   0  0  0  0  0  0  0  0  0  0  0  0
  137.0717  152.6331  145.6314 Cl  0  0  0  0  0  0  0  0  0  0  0  0
  1  2  1  0
  2  3  2  0
  1  4  1  0
  3  5  1  0
  1  6  2  0
  6  7  1  0
  4  8  2  0
  5  9  2  0
  6  9  1  0
  7 10  2  0
  8 10  1  0
  8 11  1  0
  3 12  1  0
M  END
$$$$

     RDKit          3D

 12 12  0  0  0  0  0  0  0  0999 V2000
  139.5546  150.5070  140.4440 C   0  0  0  0  0  0  0  0  0  0  0  0
  139.2168  150.0150  139.3722 C   0  0  0  0  0  0  0  0  0  0  0  0
  138.8581  150.3073  141.5852 C   0  0  0  0  0  0  0  0  0  0  0  0
  139.2290  150.3516  142.8905 C   0  0  0  0  0  0  0  0  0  0  0  0
  138.3519  151.0008  143.9747 C   0  0  0  0  0  0  0  0  0  0  0  0
  137.3998  151.4263  143.6194 C   0  0  0  0  0  0  0  0  0  0  0  0
  136.5329  152.2351  144.5998 C   0  0  0  0  0  0  0  0  0  0  0  0
  136.9466  151.2605  142.2215 C   0  0  0  0  0  0  0  0  0  0  0  0
  136.9503  153.3934  145.1087 C   0  0  0  0  0  0  0  0  0  0  0  0
  135.5251  151.8116  145.0538 C   0  0  0  0  0  0  0  0  0  0  0  0
  134.5196  152.5284  145.7002 C   0  0  0  0  0  0  0  0  0  0  0  0
  137.4597  150.5887  141.4014 C   0  0  0  0  0  0  0  0  0  0  0  0
  1  2  2  0
  1  3  1  0
  3  4  1  0
  4  5  2  0
  5  6  1  0
  6  7  1  0
  6  8  2  0
  7  9  1  0
  7 10  2  3
 10 11  1  0
  3 12  2  0
  8 12  1  0
M  END
$$$$

     RDKit          3D

 12 13  0  0  0  0  0  0  0  0999 V2000
  139.3423  149.9928  140.5892 C   0  0  0  0  0  0  0  0  0  0  0  0
  138.9530  149.9232  139.3662 C   0  0  0  0  0  0  0  0  0  0  0  0
  138.6126  150.1100  141.6424 C   0  0  0  0  0  0  0  0  0  0  0  0
  137.1875  149.8648  141.8313 C   0  0  0  0  0  0  0  0  0  0  0  0
  136.5143  149.7627  140.5785 C   0  0  0  0  0  0  0  0  0  0  0  0
  139.1422  150.4925  143.0862 C   0  0  0  0  0  0  0  0  0  0  0  0
  138.1958  151.0001  144.0544 C   0  0  0  0  0  0  0  0  0  0  0  0
  139.6674  149.8808  138.1647 C   0  0  0  0  0  0  0  0  0  0  0  0
  137.3629  149.7294  139.3147 C   0  0  0  0  0  0  0  0  0  0  0  0
  136.4872  150.1421  142.9828 N   0  0  0  0  0  0  0  0  0  0  0  0
  136.9686  150.6192  144.0027 C   0  0  0  0  0  0  0  0  0  0  0  0
  136.1438  151.0206  145.1233 C   0  0  0  0  0  0  0  0  0  0  0  0
  1  2  2  0
  1  3  1  0
  3  4  1  0
  4  5  2  0
  3  6  1  0
  6  7  2  0
  2  8  1  0
  2  9  1  0
  5  9  1  0
  4 10  1  0
  7 11  1  0
 10 11  2  0
 11 12  1  0
M  END
$$$$

     RDKit          3D

 12 13  0  0  0  0  0  0  0  0999 V2000
  139.2621  151.0930  142.4042 C   0  0  0  0  0  0  0  0  0  0  0  0
  138.8616  152.1304  142.9039 C   0  0  0  0  0  0  0  0  0  0  0  0
  137.9119  151.7966  143.7821 C   0  0  0  0  0  0  0  0  0  0  0  0
  138.8318  150.4014  141.6013 C   0  0  0  0  0  0  0  0  0  0  0  0
  137.6882  149.9441  141.7473 C   0  0  0  0  0  0  0  0  0  0  0  0
  136.7295  151.0149  143.4791 C   0  0  0  0  0  0  0  0  0  0  0  0
  137.1335  149.1046  140.5445 C   0  0  0  0  0  0  0  0  0  0  0  0
  136.6451  150.2326  142.4949 C   0  0  0  0  0  0  0  0  0  0  0  0
  135.6171  151.1640  144.4911 C   0  0  0  0  0  0  0  0  0  0  0  0
  135.3877  152.5235  144.9858 C   0  0  0  0  0  0  0  0  0  0  0  0
  136.2114  153.5166  144.9871 C   0  0  0  0  0  0  0  0  0  0  0  0
  137.4394  152.9723  144.7323 C   0  0  0  0  0  0  0  0  0  0  0  0
  1  2  1  0
  2  3  2  0
  1  4  2  0
  4  5  1  0
  3  6  1  0
  5  7  1  0
  5  8  2  0
  6  8  1  0
  6  9  1  0
  9 10  1  0
 10 11  2  0
  3 12  1  0
 11 12  1  0
M  END
$$$$

     RDKit          3D

 12 13  0  0  0  0  0  0  0  0999 V2000
  140.3038  150.2150  139.4785 Cl  0  0  0  0  0  0  0  0  0  0  0  0
  138.6786  150.1874  140.5317 C   0  0  0  0  0  0  0  0  0  0  0  0
  137.6385  149.3840  140.0946 C   0  0  0  0  0  0  0  0  0  0  0  0
  138.7506  150.9507  141.6713 C   0  0  0  0  0  0  0  0  0  0  0  0
  136.5527  149.6212  140.7745 C   0  0  0  0  0  0  0  0  0  0  0  0
  135.2919  149.0327  140.1418 C   0  0  0  0  0  0  0  0  0  0  0  0
  136.5287  150.4782  141.8364 C   0  0  0  0  0  0  0  0  0  0  0  0
  135.3193  150.6924  142.7156 C   0  0  0  0  0  0  0  0  0  0  0  0
  135.7668  151.4926  143.9256 C   0  0  0  0  0  0  0  0  0  0  0  0
  137.1793  151.6857  143.9549 C   0  0  0  0  0  0  0  0  0  0  0  0
  137.6714  151.0567  142.4962 C   0  0  0  0  0  0  0  0  0  0  0  0
  138.1253  151.8186  144.5556 O   0  0  0  0  0  0  0  0  0  0  0  0
  1  2  1  0
  2  3  2  0
  2  4  1  0
  3  5  1  0
  5  6  1  0
  5  7  2  0
  7  8  1  0
  8  9  2  0
  9 10  1  0
  4 11  2  0
  7 11  1  0
 10 11  1  0
 10 12  2  0
M  END
$$$$

     RDKit          3D

 12 13  0  0  0  0  0  0  0  0999 V2000
  139.2621  151.0930  142.4042 C   0  0  0  0  0  0  0  0  0  0  0  0
  138.8616  152.1304  142.9039 C   0  0  0  0  0  0  0  0  0  0  0  0
  137.7832  151.8907  143.8937 C   0  0  0  0  0  0  0  0  0  0  0  0
  137.3598  150.5392  144.0619 C   0  0  0  0  0  0  0  0  0  0  0  0
  136.3242  150.4631  145.1222 C   0  0  0  0  0  0  0  0  0  0  0  0
  139.2678  149.7545  142.8033 C   0  0  0  0  0  0  0  0  0  0  0  0
  137.9644  149.6082  143.5715 C   0  0  0  0  0  0  0  0  0  0  0  0
  140.1262  151.3391  140.9873 C   0  0  0  0  0  0  0  0  0  0  0  0
  135.7291  151.6076  145.4204 C   0  0  0  0  0  0  0  0  0  0  0  0
  137.2235  152.9202  144.6668 C   0  0  0  0  0  0  0  0  0  0  0  0
  136.1779  152.7612  145.5181 C   0  0  0  0  0  0  0  0  0  0  0  0
  135.4098  153.8648  145.6262 O   0  0  0  0  0  0  0  0  0  0  0  0
  1  2  1  0
  2  3  2  0
  3  4  1  0
  4  5  2  0
  1  6  1  0
  4  7  1  0
  6  7  2  0
  1  8  1  0
  5  9  1  0
  3 10  1  0
  9 11  1  0
 10 11  1  0
 11 12  1  0
M  END
$$$$

     RDKit          3D

 12 12  0  0  0  0  0  0  0  0999 V2000
  138.9705  151.3131  142.5679 C   0  0  0  0  0  0  0  0  0  0  0  0
  138.6042  152.0888  143.2654 C   0  0  0  0  0  0  0  0  0  0  0  0
  137.6600  151.8318  144.0475 C   0  0  0  0  0  0  0  0  0  0  0  0
  136.5825  152.7511  144.5734 C   0  0  0  0  0  0  0  0  0  0  0  0
  135.5827  152.5121  145.5093 C   0  0  0  0  0  0  0  0  0  0  0  0
  139.9322  151.4080  141.3737 C   0  0  0  0  0  0  0  0  0  0  0  0
  135.6283  151.0416  145.7979 C   0  0  0  0  0  0  0  0  0  0  0  0
  137.2911  150.5061  144.5502 C   0  0  0  0  0  0  0  0  0  0  0  0
  139.6740  150.6670  140.2600 C   0  0  0  0  0  0  0  0  0  0  0  0
  134.5974  150.7455  146.8356 C   0  0  0  0  0  0  0  0  0  0  0  0
  136.3706  150.0826  145.4226 C   0  0  0  0  0  0  0  0  0  0  0  0
  140.5948  150.5021  139.2047 C   0  0  0  0  0  0  0  0  0  0  0  0
  1  2  2  3
  2  3  1  0
  3  4  1  0
  4  5  2  0
  1  6  1  0
  5  7  1  0
  3  8  2  0
  6  9  2  3
  7 10  1  0
  7 11  2  0
  8 11  1  0
  9 12  1  0
M  END
$$$$

     RDKit          3D

 12 13  0  0  0  0  0  0  0  0999 V2000
  140.3038  150.2150  139.4785 Cl  0  0  0  0  0  0  0  0  0  0  0  0
  138.6786  150.1874  140.5317 C   0  0  0  0  0  0  0  0  0  0  0  0
  137.6385  149.3840  140.0946 C   0  0  0  0  0  0  0  0  0  0  0  0
  139.2404  150.7160  141.5759 C   0  0  0  0  0  0  0  0  0  0  0  0
  138.3592  151.0512  142.3776 C   0  0  0  0  0  0  0  0  0  0  0  0
  136.9526  150.5124  142.2952 C   0  0  0  0  0  0  0  0  0  0  0  0
  138.4072  151.7168  143.9009 C   0  0  0  0  0  0  0  0  0  0  0  0
  135.8504  150.7944  143.2209 C   0  0  0  0  0  0  0  0  0  0  0  0
  136.5561  149.7374  140.9435 C   0  0  0  0  0  0  0  0  0  0  0  0
  136.3179  151.4521  144.2824 C   0  0  0  0  0  0  0  0  0  0  0  0
  135.1064  151.7136  145.3229 C   0  0  0  0  0  0  0  0  0  0  0  0
  137.4917  151.9188  144.7468 C   0  0  0  0  0  0  0  0  0  0  0  0
  1  2  1  0
  2  3  1  0
  2  4  2  0
  4  5  1  0
  5  6  2  0
  5  7  1  0
  6  8  1  0
  3  9  2  0
  6  9  1  0
  8 10  2  0
 10 11  1  0
  7 12  2  0
 10 12  1  0
M  END
$$$$

     RDKit          3D

 12 12  0  0  0  0  0  0  0  0999 V2000
  139.5546  150.5070  140.4440 C   0  0  0  0  0  0  0  0  0  0  0  0
  139.2168  150.0150  139.3722 C   0  0  0  0  0  0  0  0  0  0  0  0
  138.8581  150.3073  141.5852 C   0  0  0  0  0  0  0  0  0  0  0  0
  139.2290  150.3516  142.8905 C   0  0  0  0  0  0  0  0  0  0  0  0
  138.3519  151.0008  143.9747 C   0  0  0  0  0  0  0  0  0  0  0  0
  137.3998  151.4263  143.6194 C   0  0  0  0  0  0  0  0  0  0  0  0
  136.5329  152.2351  144.5998 C   0  0  0  0  0  0  0  0  0  0  0  0
  136.9466  151.2605  142.2215 C   0  0  0  0  0  0  0  0  0  0  0  0
  135.3507  151.6956  145.0820 C   0  0  0  0  0  0  0  0  0  0  0  0
  140.0126  149.8366  138.1758 C   0  0  0  0  0  0  0  0  0  0  0  0
  137.5543  150.6586  141.3561 C   0  0  0  0  0  0  0  0  0  0  0  0
  134.5502  152.4464  146.0683 C   0  0  0  0  0  0  0  0  0  0  0  0
  1  2  2  3
  1  3  1  0
  3  4  1  0
  4  5  2  0
  5  6  1  0
  6  7  1  0
  6  8  2  0
  7  9  2  3
  2 10  1  0
  3 11  2  0
  8 11  1  0
  9 12  1  0
M  END
$$$$

     RDKit          3D

 12 13  0  0  0  0  0  0  0  0999 V2000
  138.9705  151.3131  142.5679 C   0  0  0  0  0  0  0  0  0  0  0  0
  138.6042  152.0888  143.2654 C   0  0  0  0  0  0  0  0  0  0  0  0
  137.6600  151.8318  144.0475 C   0  0  0  0  0  0  0  0  0  0  0  0
  139.9937  151.3538  141.4312 C   0  0  0  0  0  0  0  0  0  0  0  0
  137.4841  150.6607  144.8972 C   0  0  0  0  0  0  0  0  0  0  0  0
  139.6563  150.7262  140.2643 C   0  0  0  0  0  0  0  0  0  0  0  0
  138.5002  150.0432  140.1976 C   0  0  0  0  0  0  0  0  0  0  0  0
  138.1256  150.0241  142.1727 C   0  0  0  0  0  0  0  0  0  0  0  0
  137.7860  149.5471  141.1852 C   0  0  0  0  0  0  0  0  0  0  0  0
  137.3965  149.6778  143.7139 C   0  0  0  0  0  0  0  0  0  0  0  0
  138.1829  149.5439  138.8452 C   0  0  0  0  0  0  0  0  0  0  0  0
  138.7435  149.4945  137.7540 C   0  0  0  0  0  0  0  0  0  0  0  0
  1  2  2  0
  2  3  1  0
  1  4  1  0
  3  5  2  0
  4  6  2  0
  6  7  1  0
  1  8  1  0
  7  9  1  0
  8  9  1  0
  5 10  1  0
  8 10  2  0
  7 11  2  3
 11 12  1  0
M  END
$$$$

     RDKit          3D

 12 13  0  0  0  0  0  0  0  0999 V2000
  139.3423  149.9928  140.5892 C   0  0  0  0  0  0  0  0  0  0  0  0
  138.9530  149.9232  139.3662 C   0  0  0  0  0  0  0  0  0  0  0  0
  138.6126  150.1100  141.6424 C   0  0  0  0  0  0  0  0  0  0  0  0
  137.1875  149.8648  141.8313 C   0  0  0  0  0  0  0  0  0  0  0  0
  136.5143  149.7627  140.5785 C   0  0  0  0  0  0  0  0  0  0  0  0
  139.1422  150.4925  143.0862 C   0  0  0  0  0  0  0  0  0  0  0  0
  138.2697  151.1411  143.8764 C   0  0  0  0  0  0  0  0  0  0  0  0
  136.9541  151.0016  143.8143 C   0  0  0  0  0  0  0  0  0  0  0  0
  136.3226  150.3068  142.8356 C   0  0  0  0  0  0  0  0  0  0  0  0
  137.4491  149.6402  139.2169 C   0  0  0  0  0  0  0  0  0  0  0  0
  136.1087  151.6303  145.0698 C   0  0  0  0  0  0  0  0  0  0  0  0
  135.1209  152.2244  144.9430 C   0  0  0  0  0  0  0  0  0  0  0  0
  1  2  2  0
  1  3  1  0
  3  4  1  0
  4  5  2  0
  3  6  1  0
  6  7  2  0
  7  8  1  0
  4  9  1  0
  8  9  2  0
  2 10  1  0
  5 10  1  0
  8 11  1  0
 11 12  1  0
M  END
$$$$

     RDKit          3D

 12 13  0  0  0  0  0  0  0  0999 V2000
  140.3038  150.2150  139.4785 Cl  0  0  0  0  0  0  0  0  0  0  0  0
  138.6786  150.1874  140.5317 C   0  0  0  0  0  0  0  0  0  0  0  0
  137.6385  149.3840  140.0946 C   0  0  0  0  0  0  0  0  0  0  0  0
  139.2404  150.7160  141.5759 C   0  0  0  0  0  0  0  0  0  0  0  0
  138.3592  151.0512  142.3776 C   0  0  0  0  0  0  0  0  0  0  0  0
  136.5132  149.6320  140.9989 C   0  0  0  0  0  0  0  0  0  0  0  0
  138.6485  151.8145  143.7097 C   0  0  0  0  0  0  0  0  0  0  0  0
  135.2230  149.4126  140.8574 C   0  0  0  0  0  0  0  0  0  0  0  0
  137.6252  151.8925  144.5437 C   0  0  0  0  0  0  0  0  0  0  0  0
  136.4813  151.4430  144.2818 C   0  0  0  0  0  0  0  0  0  0  0  0
  136.9151  150.5936  142.3467 C   0  0  0  0  0  0  0  0  0  0  0  0
  135.8697  150.7784  143.1424 C   0  0  0  0  0  0  0  0  0  0  0  0
  1  2  1  0
  2  3  1  0
  2  4  2  0
  4  5  1  0
  3  6  2  0
  5  7  1  0
  6  8  1  0
  7  9  2  0
  9 10  1  0
  5 11  2  0
  6 11  1  0
 10 12  2  0
 11 12  1  0
M  END
$$$$

     RDKit          3D

 12 13  0  0  0  0  0  0  0  0999 V2000
  138.7090  151.1480  142.6270 C   0  0  0  0  0  0  0  0  0  0  0  0
  138.5232  151.9372  143.5110 C   0  0  0  0  0  0  0  0  0  0  0  0
  137.3801  151.6562  144.3958 C   0  0  0  0  0  0  0  0  0  0  0  0
  139.7036  151.1026  141.6212 C   0  0  0  0  0  0  0  0  0  0  0  0
  136.7239  150.4190  144.0179 C   0  0  0  0  0  0  0  0  0  0  0  0
  137.9015  150.0241  142.3223 C   0  0  0  0  0  0  0  0  0  0  0  0
  138.2278  149.2932  141.1442 C   0  0  0  0  0  0  0  0  0  0  0  0
  136.8724  149.7213  143.1132 C   0  0  0  0  0  0  0  0  0  0  0  0
  137.4677  148.7273  140.3484 C   0  0  0  0  0  0  0  0  0  0  0  0
  139.5592  150.1010  140.6685 C   0  0  0  0  0  0  0  0  0  0  0  0
  136.9137  152.5664  145.6536 Cl  0  0  0  0  0  0  0  0  0  0  0  0
  140.2743  149.5945  139.5916 C   0  0  0  0  0  0  0  0  0  0  0  0
  1  2  1  0
  2  3  2  0
  1  4  1  0
  3  5  1  0
  1  6  2  0
  6  7  1  0
  5  8  2  0
  6  8  1  0
  7  9  1  0
  4 10  1  0
  7 10  2  0
  3 11  1  0
 10 12  1  0
M  END
$$$$

     RDKit          3D

 12 13  0  0  0  0  0  0  0  0999 V2000
  138.9705  151.3131  142.5679 C   0  0  0  0  0  0  0  0  0  0  0  0
  138.6042  152.0888  143.2654 C   0  0  0  0  0  0  0  0  0  0  0  0
  137.4887  151.7640  144.1910 C   0  0  0  0  0  0  0  0  0  0  0  0
  139.9944  151.3872  141.4253 C   0  0  0  0  0  0  0  0  0  0  0  0
  137.1404  150.3706  144.0333 C   0  0  0  0  0  0  0  0  0  0  0  0
  139.6217  150.7332  140.2348 C   0  0  0  0  0  0  0  0  0  0  0  0
  138.5564  149.8224  140.4267 C   0  0  0  0  0  0  0  0  0  0  0  0
  138.3482  149.9743  142.1178 C   0  0  0  0  0  0  0  0  0  0  0  0
  136.6652  152.4211  145.1305 C   0  0  0  0  0  0  0  0  0  0  0  0
  136.8472  153.7583  145.3098 C   0  0  0  0  0  0  0  0  0  0  0  0
  137.5001  149.4163  143.0158 N   0  0  0  0  0  0  0  0  0  0  0  0
  135.6168  151.9634  145.4830 O   0  0  0  0  0  0  0  0  0  0  0  0
  1  2  1  0
  2  3  2  0
  1  4  1  0
  3  5  1  0
  4  6  2  0
  6  7  1  0
  1  8  2  0
  7  8  1  0
  3  9  1  0
  9 10  1  0
  5 11  2  0
  8 11  1  0
  9 12  2  0
M  END
$$$$

     RDKit          3D

 12 13  0  0  0  0  0  0  0  0999 V2000
  140.3038  150.2150  139.4785 Cl  0  0  0  0  0  0  0  0  0  0  0  0
  138.6786  150.1874  140.5317 C   0  0  0  0  0  0  0  0  0  0  0  0
  137.6385  149.3840  140.0946 C   0  0  0  0  0  0  0  0  0  0  0  0
  139.2404  150.7160  141.5759 C   0  0  0  0  0  0  0  0  0  0  0  0
  138.3592  151.0512  142.3776 C   0  0  0  0  0  0  0  0  0  0  0  0
  136.9526  150.5124  142.2952 C   0  0  0  0  0  0  0  0  0  0  0  0
  138.4072  151.7168  143.9009 C   0  0  0  0  0  0  0  0  0  0  0  0
  135.8504  150.7944  143.2209 C   0  0  0  0  0  0  0  0  0  0  0  0
  136.5561  149.7374  140.9435 C   0  0  0  0  0  0  0  0  0  0  0  0
  136.3179  151.4521  144.2824 C   0  0  0  0  0  0  0  0  0  0  0  0
  135.1064  151.7136  145.3229 C   0  0  0  0  0  0  0  0  0  0  0  0
  137.2969  151.8802  144.7049 C   0  0  0  0  0  0  0  0  0  0  0  0
  1  2  1  0
  2  3  1  0
  2  4  2  0
  4  5  1  0
  5  6  2  0
  5  7  1  0
  6  8  1  0
  3  9  2  0
  6  9  1  0
  8 10  2  0
 10 11  1  0
  7 12  1  0
 10 12  1  0
M  END
$$$$

     RDKit          3D

 12 13  0  0  0  0  0  0  0  0999 V2000
  138.7090  151.1480  142.6270 C   0  0  0  0  0  0  0  0  0  0  0  0
  138.5232  151.9372  143.5110 C   0  0  0  0  0  0  0  0  0  0  0  0
  137.3801  151.6562  144.3958 C   0  0  0  0  0  0  0  0  0  0  0  0
  139.7036  151.1026  141.6212 C   0  0  0  0  0  0  0  0  0  0  0  0
  136.7239  150.4190  144.0179 C   0  0  0  0  0  0  0  0  0  0  0  0
  137.9015  150.0241  142.3223 C   0  0  0  0  0  0  0  0  0  0  0  0
  138.2278  149.2932  141.1442 C   0  0  0  0  0  0  0  0  0  0  0  0
  139.7154  150.3015  140.5154 C   0  0  0  0  0  0  0  0  0  0  0  0
  135.6239  150.2055  145.1505 C   0  0  0  0  0  0  0  0  0  0  0  0
  140.9536  150.6723  139.5678 C   0  0  0  0  0  0  0  0  0  0  0  0
  136.8864  149.7130  143.0113 C   0  0  0  0  0  0  0  0  0  0  0  0
  138.9375  149.3820  140.2172 C   0  0  0  0  0  0  0  0  0  0  0  0
  1  2  1  0
  2  3  2  0
  1  4  1  0
  3  5  1  0
  1  6  2  0
  6  7  1  0
  4  8  2  0
  5  9  1  0
  8 10  1  0
  5 11  2  0
  6 11  1  0
  7 12  2  0
  8 12  1  0
M  END
$$$$

     RDKit          3D

 12 13  0  0  0  0  0  0  0  0999 V2000
  138.7090  151.1480  142.6270 C   0  0  0  0  0  0  0  0  0  0  0  0
  138.5232  151.9372  143.5110 C   0  0  0  0  0  0  0  0  0  0  0  0
  137.3801  151.6562  144.3958 C   0  0  0  0  0  0  0  0  0  0  0  0
  139.7036  151.1026  141.6212 C   0  0  0  0  0  0  0  0  0  0  0  0
  136.7239  150.4190  144.0179 C   0  0  0  0  0  0  0  0  0  0  0  0
  137.9015  150.0241  142.3223 C   0  0  0  0  0  0  0  0  0  0  0  0
  138.2278  149.2932  141.1442 C   0  0  0  0  0  0  0  0  0  0  0  0
  136.9445  149.6821  143.0247 C   0  0  0  0  0  0  0  0  0  0  0  0
  137.0946  152.5090  145.4858 O   0  0  0  0  0  0  0  0  0  0  0  0
  137.4979  148.6970  140.3634 C   0  0  0  0  0  0  0  0  0  0  0  0
  136.0281  152.2308  146.1978 C   0  0  0  0  0  0  0  0  0  0  0  0
  139.6269  150.2100  140.6567 C   0  0  0  0  0  0  0  0  0  0  0  0
  1  2  1  0
  2  3  2  0
  1  4  1  0
  3  5  1  0
  1  6  2  0
  6  7  1  0
  5  8  2  0
  6  8  1  0
  3  9  1  0
  7 10  1  0
  9 11  1  0
  4 12  2  0
  7 12  2  0
M  END
$$$$

     RDKit          3D

 12 13  0  0  0  0  0  0  0  0999 V2000
  138.7090  151.1480  142.6270 C   0  0  0  0  0  0  0  0  0  0  0  0
  138.5232  151.9372  143.5110 C   0  0  0  0  0  0  0  0  0  0  0  0
  137.3909  151.8067  144.0746 C   0  0  0  0  0  0  0  0  0  0  0  0
  136.5962  150.6163  143.9739 C   0  0  0  0  0  0  0  0  0  0  0  0
  137.9834  149.9618  142.2545 C   0  0  0  0  0  0  0  0  0  0  0  0
  136.5070  152.7471  145.0899 C   0  0  0  0  0  0  0  0  0  0  0  0
  135.4860  150.3687  144.8385 C   0  0  0  0  0  0  0  0  0  0  0  0
  136.9107  149.7044  142.9873 C   0  0  0  0  0  0  0  0  0  0  0  0
  135.1083  151.5625  145.5821 C   0  0  0  0  0  0  0  0  0  0  0  0
  133.8412  151.2798  146.5131 C   0  0  0  0  0  0  0  0  0  0  0  0
  135.5942  152.6002  145.7708 C   0  0  0  0  0  0  0  0  0  0  0  0
  140.0436  151.3293  141.7390 C   0  0  0  0  0  0  0  0  0  0  0  0
  1  2  1  0
  2  3  2  0
  3  4  1  0
  1  5  2  0
  3  6  1  0
  4  7  1  0
  4  8  2  0
  5  8  1  0
  7  9  2  0
  9 10  1  0
  6 11  1  0
  9 11  1  0
  1 12  1  0
M  END
$$$$

     RDKit          3D

 12 13  0  0  0  0  0  0  0  0999 V2000
  138.7090  151.1480  142.6270 C   0  0  0  0  0  0  0  0  0  0  0  0
  138.5232  151.9372  143.5110 C   0  0  0  0  0  0  0  0  0  0  0  0
  137.3801  151.6562  144.3958 C   0  0  0  0  0  0  0  0  0  0  0  0
  139.7036  151.1026  141.6212 C   0  0  0  0  0  0  0  0  0  0  0  0
  136.7239  150.4190  144.0179 C   0  0  0  0  0  0  0  0  0  0  0  0
  137.9015  150.0241  142.3223 C   0  0  0  0  0  0  0  0  0  0  0  0
  138.2278  149.2932  141.1442 C   0  0  0  0  0  0  0  0  0  0  0  0
  137.1510  152.6488  145.4050 C   0  0  0  0  0  0  0  0  0  0  0  0
  139.6392  150.4065  140.4602 C   0  0  0  0  0  0  0  0  0  0  0  0
  138.9923  149.4189  140.1914 C   0  0  0  0  0  0  0  0  0  0  0  0
  136.9529  149.6974  142.8562 N   0  0  0  0  0  0  0  0  0  0  0  0
  140.8988  151.0601  139.2520 Cl  0  0  0  0  0  0  0  0  0  0  0  0
  1  2  1  0
  2  3  2  0
  1  4  1  0
  3  5  1  0
  1  6  2  0
  6  7  1  0
  3  8  1  0
  4  9  2  0
  7 10  2  0
  9 10  1  0
  5 11  1  0
  6 11  1  0
  9 12  1  0
M  END
$$$$

     RDKit          3D

 12 13  0  0  0  0  0  0  0  0999 V2000
  140.3038  150.2150  139.4785 Cl  0  0  0  0  0  0  0  0  0  0  0  0
  138.6786  150.1874  140.5317 C   0  0  0  0  0  0  0  0  0  0  0  0
  137.6385  149.3840  140.0946 C   0  0  0  0  0  0  0  0  0  0  0  0
  136.4399  149.4579  140.8211 C   0  0  0  0  0  0  0  0  0  0  0  0
  138.9830  150.6971  141.6805 C   0  0  0  0  0  0  0  0  0  0  0  0
  138.2331  150.9043  142.4752 C   0  0  0  0  0  0  0  0  0  0  0  0
  138.4970  151.5655  143.8665 C   0  0  0  0  0  0  0  0  0  0  0  0
  136.7758  150.4940  142.6016 C   0  0  0  0  0  0  0  0  0  0  0  0
  135.3976  148.9102  139.7708 C   0  0  0  0  0  0  0  0  0  0  0  0
  137.4830  151.7026  144.7952 C   0  0  0  0  0  0  0  0  0  0  0  0
  136.1736  151.0699  143.8575 C   0  0  0  0  0  0  0  0  0  0  0  0
  135.9709  150.1902  141.7848 C   0  0  0  0  0  0  0  0  0  0  0  0
  1  2  1  0
  2  3  2  0
  3  4  1  0
  2  5  1  0
  5  6  2  0
  6  7  1  0
  6  8  1  0
  4  9  1  0
  7 10  2  0
  8 11  2  0
 10 11  1  0
  4 12  2  0
  8 12  1  0
M  END
$$$$

     RDKit          3D

 12 13  0  0  0  0  0  0  0  0999 V2000
  138.9705  151.3131  142.5679 C   0  0  0  0  0  0  0  0  0  0  0  0
  138.6042  152.0888  143.2654 C   0  0  0  0  0  0  0  0  0  0  0  0
  137.4887  151.7640  144.1910 C   0  0  0  0  0  0  0  0  0  0  0  0
  137.1673  150.4135  144.2710 C   0  0  0  0  0  0  0  0  0  0  0  0
  136.7837  152.6380  145.0886 C   0  0  0  0  0  0  0  0  0  0  0  0
  138.5889  149.8386  142.4057 C   0  0  0  0  0  0  0  0  0  0  0  0
  137.0939  153.8636  145.1629 C   0  0  0  0  0  0  0  0  0  0  0  0
  139.0958  149.0319  141.4957 C   0  0  0  0  0  0  0  0  0  0  0  0
  135.6368  152.1771  145.3913 C   0  0  0  0  0  0  0  0  0  0  0  0
  135.3317  150.8634  145.3879 C   0  0  0  0  0  0  0  0  0  0  0  0
  137.4908  149.6126  143.3782 C   0  0  0  0  0  0  0  0  0  0  0  0
  136.3040  149.8862  145.0244 C   0  0  0  0  0  0  0  0  0  0  0  0
  1  2  1  0
  2  3  2  0
  3  4  1  0
  3  5  1  0
  1  6  2  0
  5  7  1  0
  6  8  1  0
  5  9  2  0
  9 10  1  0
  4 11  2  0
  6 11  1  0
  4 12  1  0
 10 12  2  0
M  END
$$$$

     RDKit          3D

 12 13  0  0  0  0  0  0  0  0999 V2000
  139.3949  150.7519  142.0137 C   0  0  0  0  0  0  0  0  0  0  0  0
  139.0649  150.4895  140.7536 C   0  0  0  0  0  0  0  0  0  0  0  0
  138.4480  150.6367  143.0431 C   0  0  0  0  0  0  0  0  0  0  0  0
  137.8334  149.9841  140.4385 C   0  0  0  0  0  0  0  0  0  0  0  0
  136.8172  149.7850  141.4636 C   0  0  0  0  0  0  0  0  0  0  0  0
  138.7926  151.0562  144.4368 C   0  0  0  0  0  0  0  0  0  0  0  0
  137.6189  151.6483  145.1213 C   0  0  0  0  0  0  0  0  0  0  0  0
  135.4025  149.5524  141.0431 C   0  0  0  0  0  0  0  0  0  0  0  0
  136.4095  151.5019  144.5277 C   0  0  0  0  0  0  0  0  0  0  0  0
  137.1415  150.4213  142.7351 C   0  0  0  0  0  0  0  0  0  0  0  0
  136.0590  150.8090  143.4886 C   0  0  0  0  0  0  0  0  0  0  0  0
  135.0778  152.4061  145.3400 Cl  0  0  0  0  0  0  0  0  0  0  0  0
  1  2  2  0
  1  3  1  0
  2  4  1  0
  4  5  2  0
  3  6  1  0
  6  7  2  0
  5  8  1  0
  7  9  1  0
  3 10  2  0
  5 10  1  0
  9 11  2  0
 10 11  1  0
  9 12  1  0
M  END
$$$$

     RDKit          3D

 12 12  0  0  0  0  0  0  0  0999 V2000
  140.3038  150.2150  139.4785 Cl  0  0  0  0  0  0  0  0  0  0  0  0
  138.6786  150.1874  140.5317 C   0  0  0  0  0  0  0  0  0  0  0  0
  137.6385  149.3840  140.0946 C   0  0  0  0  0  0  0  0  0  0  0  0
  139.2404  150.7160  141.5759 C   0  0  0  0  0  0  0  0  0  0  0  0
  138.2225  150.6931  142.6929 C   0  0  0  0  0  0  0  0  0  0  0  0
  136.9613  150.0836  142.4469 C   0  0  0  0  0  0  0  0  0  0  0  0
  135.9487  150.2526  143.4885 C   0  0  0  0  0  0  0  0  0  0  0  0
  136.3619  151.1927  144.4166 C   0  0  0  0  0  0  0  0  0  0  0  0
  135.7653  151.7694  145.4030 C   0  0  0  0  0  0  0  0  0  0  0  0
  134.4367  151.5110  145.8070 C   0  0  0  0  0  0  0  0  0  0  0  0
  136.5438  149.5832  141.0808 C   0  0  0  0  0  0  0  0  0  0  0  0
  136.1709  152.9256  146.2204 C   0  0  0  0  0  0  0  0  0  0  0  0
  1  2  1  0
  2  3  1  0
  2  4  2  0
  4  5  1  0
  5  6  2  0
  6  7  1  0
  7  8  1  0
  8  9  2  3
  9 10  1  0
  3 11  2  0
  6 11  1  0
  9 12  1  0
M  END
$$$$

     RDKit          3D

 12 13  0  0  0  0  0  0  0  0999 V2000
  140.3038  150.2150  139.4785 Cl  0  0  0  0  0  0  0  0  0  0  0  0
  138.6786  150.1874  140.5317 C   0  0  0  0  0  0  0  0  0  0  0  0
  137.6385  149.3840  140.0946 C   0  0  0  0  0  0  0  0  0  0  0  0
  136.4399  149.4579  140.8211 C   0  0  0  0  0  0  0  0  0  0  0  0
  139.1335  150.7559  141.5073 C   0  0  0  0  0  0  0  0  0  0  0  0
  138.1148  150.7992  142.6522 C   0  0  0  0  0  0  0  0  0  0  0  0
  135.1531  149.2335  140.4493 C   0  0  0  0  0  0  0  0  0  0  0  0
  138.4182  151.3986  143.9384 C   0  0  0  0  0  0  0  0  0  0  0  0
  136.7814  150.4866  142.9788 C   0  0  0  0  0  0  0  0  0  0  0  0
  136.2506  150.8831  144.2272 C   0  0  0  0  0  0  0  0  0  0  0  0
  135.8898  149.9825  142.0114 C   0  0  0  0  0  0  0  0  0  0  0  0
  137.1928  151.3562  144.7935 N   0  0  0  0  0  0  0  0  0  0  0  0
  1  2  1  0
  2  3  2  0
  3  4  1  0
  2  5  1  0
  5  6  2  0
  4  7  1  0
  6  8  1  0
  6  9  1  0
  9 10  2  0
  4 11  1  0
  9 11  1  0
  8 12  2  0
 10 12  1  0
M  END
$$$$

     RDKit          3D

 12 13  0  0  0  0  0  0  0  0999 V2000
  138.7090  151.1480  142.6270 C   0  0  0  0  0  0  0  0  0  0  0  0
  138.5232  151.9372  143.5110 C   0  0  0  0  0  0  0  0  0  0  0  0
  137.3801  151.6562  144.3958 C   0  0  0  0  0  0  0  0  0  0  0  0
  139.7036  151.1026  141.6212 C   0  0  0  0  0  0  0  0  0  0  0  0
  136.7239  150.4190  144.0179 C   0  0  0  0  0  0  0  0  0  0  0  0
  137.9015  150.0241  142.3223 C   0  0  0  0  0  0  0  0  0  0  0  0
  138.2278  149.2932  141.1442 C   0  0  0  0  0  0  0  0  0  0  0  0
  137.1510  152.6488  145.4050 C   0  0  0  0  0  0  0  0  0  0  0  0
  135.9440  153.1593  145.3482 C   0  0  0  0  0  0  0  0  0  0  0  0
  136.9377  149.7182  142.8069 N   0  0  0  0  0  0  0  0  0  0  0  0
  139.6800  150.2680  140.5701 C   0  0  0  0  0  0  0  0  0  0  0  0
  140.3339  150.4283  139.6977 C   0  0  0  0  0  0  0  0  0  0  0  0
  1  2  1  0
  2  3  2  0
  1  4  1  0
  3  5  1  0
  1  6  2  0
  6  7  1  0
  3  8  1  0
  8  9  1  0
  5 10  2  0
  6 10  1  0
  4 11  1  0
  7 11  1  0
 11 12  1  0
M  END
$$$$

     RDKit          3D

 12 13  0  0  0  0  0  0  0  0999 V2000
  139.5546  150.5070  140.4440 C   0  0  0  0  0  0  0  0  0  0  0  0
  139.2168  150.0150  139.3722 C   0  0  0  0  0  0  0  0  0  0  0  0
  138.8581  150.3073  141.5852 C   0  0  0  0  0  0  0  0  0  0  0  0
  137.9799  149.2986  139.2370 C   0  0  0  0  0  0  0  0  0  0  0  0
  137.1575  149.1630  140.3909 C   0  0  0  0  0  0  0  0  0  0  0  0
  139.3383  150.9197  142.9169 C   0  0  0  0  0  0  0  0  0  0  0  0
  138.3080  151.0871  143.9346 C   0  0  0  0  0  0  0  0  0  0  0  0
  137.1178  150.9397  143.6723 C   0  0  0  0  0  0  0  0  0  0  0  0
  137.4666  149.8048  141.5686 C   0  0  0  0  0  0  0  0  0  0  0  0
  136.5651  150.2586  142.5379 C   0  0  0  0  0  0  0  0  0  0  0  0
  136.0486  151.3928  144.8752 C   0  0  0  0  0  0  0  0  0  0  0  0
  135.5280  152.3885  144.8876 C   0  0  0  0  0  0  0  0  0  0  0  0
  1  2  2  0
  1  3  1  0
  2  4  1  0
  4  5  2  0
  3  6  1  0
  6  7  2  0
  7  8  1  0
  3  9  2  0
  5  9  1  0
  8 10  2  0
  9 10  1  0
  8 11  1  0
 11 12  2  0
M  END
$$$$

     RDKit          3D

 12 13  0  0  0  0  0  0  0  0999 V2000
  140.3038  150.2150  139.4785 Cl  0  0  0  0  0  0  0  0  0  0  0  0
  138.6786  150.1874  140.5317 C   0  0  0  0  0  0  0  0  0  0  0  0
  137.6385  149.3840  140.0946 C   0  0  0  0  0  0  0  0  0  0  0  0
  138.7506  150.9507  141.6713 C   0  0  0  0  0  0  0  0  0  0  0  0
  136.5527  149.6212  140.7745 C   0  0  0  0  0  0  0  0  0  0  0  0
  135.2919  149.0327  140.1418 C   0  0  0  0  0  0  0  0  0  0  0  0
  136.5287  150.4782  141.8364 C   0  0  0  0  0  0  0  0  0  0  0  0
  135.3193  150.6924  142.7156 C   0  0  0  0  0  0  0  0  0  0  0  0
  135.7668  151.4926  143.9256 C   0  0  0  0  0  0  0  0  0  0  0  0
  137.1793  151.6857  143.9549 C   0  0  0  0  0  0  0  0  0  0  0  0
  137.8318  151.1287  142.6360 C   0  0  0  0  0  0  0  0  0  0  0  0
  137.9931  152.2298  144.8463 C   0  0  0  0  0  0  0  0  0  0  0  0
  1  2  1  0
  2  3  2  0
  2  4  1  0
  3  5  1  0
  5  6  1  0
  5  7  2  0
  7  8  1  0
  8  9  2  0
  9 10  1  0
  4 11  2  0
  7 11  1  0
 10 11  1  0
 10 12  2  0
M  END
$$$$

     RDKit          3D

 12 13  0  0  0  0  0  0  0  0999 V2000
  140.3038  150.2150  139.4785 Cl  0  0  0  0  0  0  0  0  0  0  0  0
  138.6786  150.1874  140.5317 C   0  0  0  0  0  0  0  0  0  0  0  0
  137.6385  149.3840  140.0946 C   0  0  0  0  0  0  0  0  0  0  0  0
  136.4399  149.4579  140.8211 C   0  0  0  0  0  0  0  0  0  0  0  0
  138.9830  150.6971  141.6805 C   0  0  0  0  0  0  0  0  0  0  0  0
  138.2331  150.9043  142.4752 C   0  0  0  0  0  0  0  0  0  0  0  0
  138.4970  151.5655  143.8665 C   0  0  0  0  0  0  0  0  0  0  0  0
  136.7758  150.4940  142.6016 C   0  0  0  0  0  0  0  0  0  0  0  0
  136.0204  150.0432  141.8245 C   0  0  0  0  0  0  0  0  0  0  0  0
  136.1862  150.9486  143.8645 N   0  0  0  0  0  0  0  0  0  0  0  0
  137.0931  151.5112  144.6434 C   0  0  0  0  0  0  0  0  0  0  0  0
  136.9408  152.0371  145.6388 O   0  0  0  0  0  0  0  0  0  0  0  0
  1  2  1  0
  2  3  2  0
  3  4  1  0
  2  5  1  0
  5  6  2  0
  6  7  1  0
  6  8  1  0
  4  9  2  0
  8  9  1  0
  8 10  2  0
  7 11  1  0
 10 11  1  0
 11 12  2  0
M  END
$$$$

     RDKit          3D

 12 13  0  0  0  0  0  0  0  0999 V2000
  138.7090  151.1480  142.6270 C   0  0  0  0  0  0  0  0  0  0  0  0
  138.5232  151.9372  143.5110 C   0  0  0  0  0  0  0  0  0  0  0  0
  137.3801  151.6562  144.3958 C   0  0  0  0  0  0  0  0  0  0  0  0
  139.7036  151.1026  141.6212 C   0  0  0  0  0  0  0  0  0  0  0  0
  136.7239  150.4190  144.0179 C   0  0  0  0  0  0  0  0  0  0  0  0
  137.9015  150.0241  142.3223 C   0  0  0  0  0  0  0  0  0  0  0  0
  138.2278  149.2932  141.1442 C   0  0  0  0  0  0  0  0  0  0  0  0
  137.1510  152.6488  145.4050 C   0  0  0  0  0  0  0  0  0  0  0  0
  135.9440  153.1593  145.3482 C   0  0  0  0  0  0  0  0  0  0  0  0
  136.9377  149.7182  142.8069 N   0  0  0  0  0  0  0  0  0  0  0  0
  139.3636  149.9361  140.4697 C   0  0  0  0  0  0  0  0  0  0  0  0
  140.1651  150.3642  139.6543 O   0  0  0  0  0  0  0  0  0  0  0  0
  1  2  1  0
  2  3  2  0
  1  4  1  0
  3  5  1  0
  1  6  2  0
  6  7  1  0
  3  8  1  0
  8  9  1  0
  5 10  2  0
  6 10  1  0
  4 11  1  0
  7 11  1  0
 11 12  1  0
M  END
$$$$

     RDKit          3D

 13 14  0  0  0  0  0  0  0  0999 V2000
  140.3038  150.2150  139.4785 Cl  0  0  0  0  0  0  0  0  0  0  0  0
  138.6786  150.1874  140.5317 C   0  0  0  0  0  0  0  0  0  0  0  0
  137.6385  149.3840  140.0946 C   0  0  0  0  0  0  0  0  0  0  0  0
  139.2404  150.7160  141.5759 C   0  0  0  0  0  0  0  0  0  0  0  0
  138.3592  151.0512  142.3776 C   0  0  0  0  0  0  0  0  0  0  0  0
  136.5132  149.6320  140.9989 C   0  0  0  0  0  0  0  0  0  0  0  0
  138.6485  151.8145  143.7097 C   0  0  0  0  0  0  0  0  0  0  0  0
  135.2230  149.4126  140.8574 C   0  0  0  0  0  0  0  0  0  0  0  0
  137.6252  151.8925  144.5437 C   0  0  0  0  0  0  0  0  0  0  0  0
  136.4813  151.4430  144.2818 C   0  0  0  0  0  0  0  0  0  0  0  0
  136.9151  150.5936  142.3467 C   0  0  0  0  0  0  0  0  0  0  0  0
  135.3775  151.6373  145.3541 C   0  0  0  0  0  0  0  0  0  0  0  0
  136.0633  150.8094  143.1499 N   0  0  0  0  0  0  0  0  0  0  0  0
  1  2  1  0
  2  3  1  0
  2  4  2  0
  4  5  1  0
  3  6  2  0
  5  7  1  0
  6  8  1  0
  7  9  2  0
  9 10  1  0
  5 11  2  0
  6 11  1  0
 10 12  1  0
 10 13  2  0
 11 13  1  0
M  END
$$$$

     RDKit          3D

 13 14  0  0  0  0  0  0  0  0999 V2000
  140.3038  150.2150  139.4785 Cl  0  0  0  0  0  0  0  0  0  0  0  0
  138.6786  150.1874  140.5317 C   0  0  0  0  0  0  0  0  0  0  0  0
  137.6385  149.3840  140.0946 C   0  0  0  0  0  0  0  0  0  0  0  0
  139.2404  150.7160  141.5759 C   0  0  0  0  0  0  0  0  0  0  0  0
  138.3592  151.0512  142.3776 C   0  0  0  0  0  0  0  0  0  0  0  0
  136.9526  150.5124  142.2952 C   0  0  0  0  0  0  0  0  0  0  0  0
  138.4072  151.7168  143.9009 C   0  0  0  0  0  0  0  0  0  0  0  0
  135.8504  150.7944  143.2209 C   0  0  0  0  0  0  0  0  0  0  0  0
  137.4168  148.7668  138.9881 C   0  0  0  0  0  0  0  0  0  0  0  0
  137.4248  151.8168  144.7615 C   0  0  0  0  0  0  0  0  0  0  0  0
  136.5955  149.9165  141.0804 C   0  0  0  0  0  0  0  0  0  0  0  0
  136.1855  151.3952  144.4308 C   0  0  0  0  0  0  0  0  0  0  0  0
  134.8915  151.7009  145.4587 Cl  0  0  0  0  0  0  0  0  0  0  0  0
  1  2  1  0
  2  3  1  0
  2  4  2  0
  4  5  1  0
  5  6  2  0
  5  7  1  0
  6  8  1  0
  3  9  1  0
  7 10  2  0
  3 11  2  0
  6 11  1  0
  8 12  2  0
 10 12  1  0
 12 13  1  0
M  END
$$$$

     RDKit          3D

 13 14  0  0  0  0  0  0  0  0999 V2000
  139.3423  149.9928  140.5892 C   0  0  0  0  0  0  0  0  0  0  0  0
  138.9530  149.9232  139.3662 C   0  0  0  0  0  0  0  0  0  0  0  0
  138.6126  150.1100  141.6424 C   0  0  0  0  0  0  0  0  0  0  0  0
  137.1875  149.8648  141.8313 C   0  0  0  0  0  0  0  0  0  0  0  0
  136.5143  149.7627  140.5785 C   0  0  0  0  0  0  0  0  0  0  0  0
  139.1422  150.4925  143.0862 C   0  0  0  0  0  0  0  0  0  0  0  0
  138.1958  151.0001  144.0544 C   0  0  0  0  0  0  0  0  0  0  0  0
  136.7353  150.3949  143.0646 C   0  0  0  0  0  0  0  0  0  0  0  0
  135.1509  149.5438  140.5010 C   0  0  0  0  0  0  0  0  0  0  0  0
  137.0479  150.7366  144.0791 C   0  0  0  0  0  0  0  0  0  0  0  0
  136.2382  151.2649  145.1842 C   0  0  0  0  0  0  0  0  0  0  0  0
  136.5528  151.5948  146.4061 C   0  0  0  0  0  0  0  0  0  0  0  0
  137.4138  149.6253  139.2856 C   0  0  0  0  0  0  0  0  0  0  0  0
  1  2  2  0
  1  3  1  0
  3  4  1  0
  4  5  2  0
  3  6  1  0
  6  7  2  0
  4  8  1  0
  5  9  1  0
  7 10  1  0
  8 10  2  0
 10 11  1  0
 11 12  2  0
  2 13  1  0
  5 13  1  0
M  END
$$$$

     RDKit          3D

 13 14  0  0  0  0  0  0  0  0999 V2000
  140.3038  150.2150  139.4785 Cl  0  0  0  0  0  0  0  0  0  0  0  0
  138.6786  150.1874  140.5317 C   0  0  0  0  0  0  0  0  0  0  0  0
  137.6385  149.3840  140.0946 C   0  0  0  0  0  0  0  0  0  0  0  0
  139.2404  150.7160  141.5759 C   0  0  0  0  0  0  0  0  0  0  0  0
  138.3592  151.0512  142.3776 C   0  0  0  0  0  0  0  0  0  0  0  0
  136.9526  150.5124  142.2952 C   0  0  0  0  0  0  0  0  0  0  0  0
  138.4072  151.7168  143.9009 C   0  0  0  0  0  0  0  0  0  0  0  0
  135.8504  150.7944  143.2209 C   0  0  0  0  0  0  0  0  0  0  0  0
  137.4168  148.7668  138.9881 C   0  0  0  0  0  0  0  0  0  0  0  0
  137.4248  151.8168  144.7615 C   0  0  0  0  0  0  0  0  0  0  0  0
  134.4964  150.5009  142.9614 C   0  0  0  0  0  0  0  0  0  0  0  0
  136.6254  149.8093  141.0552 C   0  0  0  0  0  0  0  0  0  0  0  0
  136.1975  151.4832  144.5289 C   0  0  0  0  0  0  0  0  0  0  0  0
  1  2  1  0
  2  3  1  0
  2  4  2  0
  4  5  1  0
  5  6  2  0
  5  7  1  0
  6  8  1  0
  3  9  1  0
  7 10  2  0
  8 11  1  0
  3 12  2  0
  6 12  1  0
  8 13  2  0
 10 13  1  0
M  END
$$$$

     RDKit          3D

 13 14  0  0  0  0  0  0  0  0999 V2000
  140.3038  150.2150  139.4785 Cl  0  0  0  0  0  0  0  0  0  0  0  0
  138.6786  150.1874  140.5317 C   0  0  0  0  0  0  0  0  0  0  0  0
  137.6385  149.3840  140.0946 C   0  0  0  0  0  0  0  0  0  0  0  0
  138.7506  150.9507  141.6713 C   0  0  0  0  0  0  0  0  0  0  0  0
  136.5527  149.6212  140.7745 C   0  0  0  0  0  0  0  0  0  0  0  0
  135.2919  149.0327  140.1418 C   0  0  0  0  0  0  0  0  0  0  0  0
  136.5287  150.4782  141.8364 C   0  0  0  0  0  0  0  0  0  0  0  0
  135.3193  150.6924  142.7156 C   0  0  0  0  0  0  0  0  0  0  0  0
  135.7668  151.4926  143.9256 C   0  0  0  0  0  0  0  0  0  0  0  0
  137.7598  151.1044  142.3481 C   0  0  0  0  0  0  0  0  0  0  0  0
  137.6723  151.9107  143.6390 S   0  0  0  0  0  0  0  0  0  0  0  0
  136.5629  151.9842  144.4128 C   0  0  0  0  0  0  0  0  0  0  0  0
  139.1883  152.3918  144.0166 O   0  0  0  0  0  0  0  0  0  0  0  0
  1  2  1  0
  2  3  2  0
  2  4  1  0
  3  5  1  0
  5  6  1  0
  5  7  2  0
  7  8  1  0
  8  9  2  0
  4 10  2  0
  7 10  1  0
 10 11  1  0
  9 12  1  0
 11 12  3  0
 11 13  1  0
M  END
$$$$

     RDKit          3D

 13 14  0  0  0  0  0  0  0  0999 V2000
  138.7090  151.1480  142.6270 C   0  0  0  0  0  0  0  0  0  0  0  0
  138.5232  151.9372  143.5110 C   0  0  0  0  0  0  0  0  0  0  0  0
  137.3801  151.6562  144.3958 C   0  0  0  0  0  0  0  0  0  0  0  0
  139.7036  151.1026  141.6212 C   0  0  0  0  0  0  0  0  0  0  0  0
  136.7239  150.4190  144.0179 C   0  0  0  0  0  0  0  0  0  0  0  0
  137.9015  150.0241  142.3223 C   0  0  0  0  0  0  0  0  0  0  0  0
  138.2278  149.2932  141.1442 C   0  0  0  0  0  0  0  0  0  0  0  0
  136.9445  149.6821  143.0247 C   0  0  0  0  0  0  0  0  0  0  0  0
  137.0946  152.5090  145.4858 O   0  0  0  0  0  0  0  0  0  0  0  0
  137.4979  148.6970  140.3634 C   0  0  0  0  0  0  0  0  0  0  0  0
  136.0281  152.2308  146.1978 C   0  0  0  0  0  0  0  0  0  0  0  0
  139.5656  150.1267  140.6545 C   0  0  0  0  0  0  0  0  0  0  0  0
  140.2206  149.6953  139.5930 C   0  0  0  0  0  0  0  0  0  0  0  0
  1  2  1  0
  2  3  2  0
  1  4  1  0
  3  5  1  0
  1  6  2  0
  6  7  1  0
  5  8  2  0
  6  8  1  0
  3  9  1  0
  7 10  1  0
  9 11  1  0
  4 12  2  0
  7 12  1  0
 12 13  1  0
M  END
$$$$

     RDKit          3D

 13 13  0  0  0  0  0  0  0  0999 V2000
  138.9705  151.3131  142.5679 C   0  0  0  0  0  0  0  0  0  0  0  0
  138.6042  152.0888  143.2654 C   0  0  0  0  0  0  0  0  0  0  0  0
  137.6600  151.8318  144.0475 C   0  0  0  0  0  0  0  0  0  0  0  0
  136.5825  152.7511  144.5734 C   0  0  0  0  0  0  0  0  0  0  0  0
  135.5827  152.5121  145.5093 C   0  0  0  0  0  0  0  0  0  0  0  0
  139.9322  151.4080  141.3737 C   0  0  0  0  0  0  0  0  0  0  0  0
  135.6283  151.0416  145.7979 C   0  0  0  0  0  0  0  0  0  0  0  0
  137.2911  150.5061  144.5502 C   0  0  0  0  0  0  0  0  0  0  0  0
  139.6740  150.6670  140.2600 C   0  0  0  0  0  0  0  0  0  0  0  0
  134.5974  150.7455  146.8356 C   0  0  0  0  0  0  0  0  0  0  0  0
  136.4551  150.0956  145.3564 C   0  0  0  0  0  0  0  0  0  0  0  0
  138.4929  149.9508  140.2321 C   0  0  0  0  0  0  0  0  0  0  0  0
  138.0323  149.3346  138.9602 C   0  0  0  0  0  0  0  0  0  0  0  0
  1  2  2  3
  2  3  1  0
  3  4  1  0
  4  5  2  0
  1  6  1  0
  5  7  1  0
  3  8  2  0
  6  9  2  3
  7 10  1  0
  7 11  2  0
  8 11  1  0
  9 12  1  0
 12 13  1  0
M  END
$$$$

     RDKit          3D

 13 14  0  0  0  0  0  0  0  0999 V2000
  139.5546  150.5070  140.4440 C   0  0  0  0  0  0  0  0  0  0  0  0
  139.2168  150.0150  139.3722 C   0  0  0  0  0  0  0  0  0  0  0  0
  138.8581  150.3073  141.5852 C   0  0  0  0  0  0  0  0  0  0  0  0
  139.2290  150.3516  142.8905 C   0  0  0  0  0  0  0  0  0  0  0  0
  138.3519  151.0008  143.9747 C   0  0  0  0  0  0  0  0  0  0  0  0
  137.3998  151.4263  143.6194 C   0  0  0  0  0  0  0  0  0  0  0  0
  136.5329  152.2351  144.5998 C   0  0  0  0  0  0  0  0  0  0  0  0
  137.8483  149.5152  139.3347 C   0  0  0  0  0  0  0  0  0  0  0  0
  137.0061  151.1934  142.2679 C   0  0  0  0  0  0  0  0  0  0  0  0
  136.9772  153.3628  145.1378 C   0  0  0  0  0  0  0  0  0  0  0  0
  137.0064  149.7381  140.4880 C   0  0  0  0  0  0  0  0  0  0  0  0
  137.5365  150.3826  141.5353 C   0  0  0  0  0  0  0  0  0  0  0  0
  135.3579  151.6190  144.9530 C   0  0  0  0  0  0  0  0  0  0  0  0
  1  2  2  0
  1  3  1  0
  3  4  1  0
  4  5  2  0
  5  6  1  0
  6  7  1  0
  2  8  1  0
  6  9  2  0
  7 10  2  0
  8 11  2  0
  3 12  2  0
  9 12  1  0
 11 12  1  0
  7 13  1  0
M  END
$$$$

     RDKit          3D

 13 14  0  0  0  0  0  0  0  0999 V2000
  140.3038  150.2150  139.4785 Cl  0  0  0  0  0  0  0  0  0  0  0  0
  138.6786  150.1874  140.5317 C   0  0  0  0  0  0  0  0  0  0  0  0
  137.6385  149.3840  140.0946 C   0  0  0  0  0  0  0  0  0  0  0  0
  139.0347  150.8837  141.6176 C   0  0  0  0  0  0  0  0  0  0  0  0
  136.4870  149.4739  141.0114 C   0  0  0  0  0  0  0  0  0  0  0  0
  136.6060  150.3319  142.1494 C   0  0  0  0  0  0  0  0  0  0  0  0
  135.4599  150.4857  143.0766 C   0  0  0  0  0  0  0  0  0  0  0  0
  135.8731  151.2537  144.3106 C   0  0  0  0  0  0  0  0  0  0  0  0
  137.1297  151.3206  144.7078 C   0  0  0  0  0  0  0  0  0  0  0  0
  138.1205  151.1550  143.5616 C   0  0  0  0  0  0  0  0  0  0  0  0
  137.8815  150.7885  142.4157 C   0  0  0  0  0  0  0  0  0  0  0  0
  134.8187  151.7577  145.1181 C   0  0  0  0  0  0  0  0  0  0  0  0
  134.9145  152.2989  146.2478 C   0  0  0  0  0  0  0  0  0  0  0  0
  1  2  1  0
  2  3  2  0
  2  4  1  0
  3  5  1  0
  5  6  2  0
  6  7  1  0
  7  8  1  0
  8  9  1  0
  9 10  1  0
  4 11  1  0
  6 11  1  0
 10 11  1  0
  8 12  2  3
 12 13  1  0
M  END
$$$$

     RDKit          3D

 13 14  0  0  0  0  0  0  0  0999 V2000
  139.5546  150.5070  140.4440 C   0  0  0  0  0  0  0  0  0  0  0  0
  139.2168  150.0150  139.3722 C   0  0  0  0  0  0  0  0  0  0  0  0
  138.8581  150.3073  141.5852 C   0  0  0  0  0  0  0  0  0  0  0  0
  139.2290  150.3516  142.8905 C   0  0  0  0  0  0  0  0  0  0  0  0
  138.3519  151.0008  143.9747 C   0  0  0  0  0  0  0  0  0  0  0  0
  137.3998  151.4263  143.6194 C   0  0  0  0  0  0  0  0  0  0  0  0
  136.5329  152.2351  144.5998 C   0  0  0  0  0  0  0  0  0  0  0  0
  136.9653  151.2809  142.2541 C   0  0  0  0  0  0  0  0  0  0  0  0
  137.8282  149.6218  139.1911 C   0  0  0  0  0  0  0  0  0  0  0  0
  137.6049  150.6587  141.3979 C   0  0  0  0  0  0  0  0  0  0  0  0
  135.4107  151.6624  145.1578 C   0  0  0  0  0  0  0  0  0  0  0  0
  136.9462  150.0886  140.2189 C   0  0  0  0  0  0  0  0  0  0  0  0
  137.0067  153.2476  145.0229 O   0  0  0  0  0  0  0  0  0  0  0  0
  1  2  2  0
  1  3  1  0
  3  4  1  0
  4  5  2  0
  5  6  1  0
  6  7  1  0
  6  8  2  0
  2  9  1  0
  3 10  2  0
  8 10  1  0
  7 11  1  0
  9 12  2  0
 10 12  1  0
  7 13  2  0
M  END
$$$$

     RDKit          3D

 13 14  0  0  0  0  0  0  0  0999 V2000
  139.3423  149.9928  140.5892 C   0  0  0  0  0  0  0  0  0  0  0  0
  138.9530  149.9232  139.3662 C   0  0  0  0  0  0  0  0  0  0  0  0
  138.6126  150.1100  141.6424 C   0  0  0  0  0  0  0  0  0  0  0  0
  137.1875  149.8648  141.8313 C   0  0  0  0  0  0  0  0  0  0  0  0
  136.5143  149.7627  140.5785 C   0  0  0  0  0  0  0  0  0  0  0  0
  139.1751  150.3995  143.1329 C   0  0  0  0  0  0  0  0  0  0  0  0
  138.2221  150.9725  144.0846 C   0  0  0  0  0  0  0  0  0  0  0  0
  136.9301  150.9606  143.8481 C   0  0  0  0  0  0  0  0  0  0  0  0
  136.3022  150.3107  142.8172 C   0  0  0  0  0  0  0  0  0  0  0  0
  136.1541  151.5145  144.9479 C   0  0  0  0  0  0  0  0  0  0  0  0
  139.7397  149.9361  138.2094 C   0  0  0  0  0  0  0  0  0  0  0  0
  137.2330  149.6050  139.2803 C   0  0  0  0  0  0  0  0  0  0  0  0
  134.9646  151.5131  145.0223 C   0  0  0  0  0  0  0  0  0  0  0  0
  1  2  2  0
  1  3  1  0
  3  4  1  0
  4  5  2  0
  3  6  1  0
  6  7  2  0
  7  8  1  0
  4  9  1  0
  8  9  1  0
  8 10  2  3
  2 11  1  0
  2 12  1  0
  5 12  1  0
 10 13  1  0
M  END
$$$$

     RDKit          3D

 13 14  0  0  0  0  0  0  0  0999 V2000
  139.3423  149.9928  140.5892 C   0  0  0  0  0  0  0  0  0  0  0  0
  138.9530  149.9232  139.3662 C   0  0  0  0  0  0  0  0  0  0  0  0
  138.6126  150.1100  141.6424 C   0  0  0  0  0  0  0  0  0  0  0  0
  137.1875  149.8648  141.8313 C   0  0  0  0  0  0  0  0  0  0  0  0
  136.5143  149.7627  140.5785 C   0  0  0  0  0  0  0  0  0  0  0  0
  139.1422  150.4925  143.0862 C   0  0  0  0  0  0  0  0  0  0  0  0
  138.1958  151.0001  144.0544 C   0  0  0  0  0  0  0  0  0  0  0  0
  136.9048  150.9691  143.8141 C   0  0  0  0  0  0  0  0  0  0  0  0
  136.2970  150.3281  142.8163 C   0  0  0  0  0  0  0  0  0  0  0  0
  135.2393  149.4700  140.4214 C   0  0  0  0  0  0  0  0  0  0  0  0
  136.4433  151.3556  145.1688 C   0  0  0  0  0  0  0  0  0  0  0  0
  135.2307  152.1119  145.2287 C   0  0  0  0  0  0  0  0  0  0  0  0
  137.4845  149.6974  139.3668 C   0  0  0  0  0  0  0  0  0  0  0  0
  1  2  2  0
  1  3  1  0
  3  4  1  0
  4  5  2  0
  3  6  1  0
  6  7  2  0
  7  8  1  0
  4  9  1  0
  8  9  1  0
  5 10  1  0
  8 11  2  3
 11 12  1  0
  2 13  1  0
  5 13  1  0
M  END
$$$$

     RDKit          3D

 13 14  0  0  0  0  0  0  0  0999 V2000
  139.3423  149.9928  140.5892 C   0  0  0  0  0  0  0  0  0  0  0  0
  138.9530  149.9232  139.3662 C   0  0  0  0  0  0  0  0  0  0  0  0
  138.6126  150.1100  141.6424 C   0  0  0  0  0  0  0  0  0  0  0  0
  137.1875  149.8648  141.8313 C   0  0  0  0  0  0  0  0  0  0  0  0
  136.5143  149.7627  140.5785 C   0  0  0  0  0  0  0  0  0  0  0  0
  139.1751  150.3995  143.1329 C   0  0  0  0  0  0  0  0  0  0  0  0
  138.2221  150.9725  144.0846 C   0  0  0  0  0  0  0  0  0  0  0  0
  136.9301  150.9606  143.8481 C   0  0  0  0  0  0  0  0  0  0  0  0
  139.8133  149.9572  138.2292 C   0  0  0  0  0  0  0  0  0  0  0  0
  136.2918  150.3719  142.8169 C   0  0  0  0  0  0  0  0  0  0  0  0
  135.9622  151.7226  145.1001 C   0  0  0  0  0  0  0  0  0  0  0  0
  137.4621  149.6900  139.3223 C   0  0  0  0  0  0  0  0  0  0  0  0
  134.9203  151.6852  145.1815 C   0  0  0  0  0  0  0  0  0  0  0  0
  1  2  2  0
  1  3  1  0
  3  4  1  0
  4  5  2  0
  3  6  1  0
  6  7  2  0
  7  8  1  0
  2  9  1  0
  4 10  1  0
  8 10  2  0
  8 11  1  0
  2 12  1  0
  5 12  1  0
 11 13  2  0
M  END
$$$$

     RDKit          3D

 13 13  0  0  0  0  0  0  0  0999 V2000
  138.9705  151.3131  142.5679 C   0  0  0  0  0  0  0  0  0  0  0  0
  138.6042  152.0888  143.2654 C   0  0  0  0  0  0  0  0  0  0  0  0
  137.6600  151.8318  144.0475 C   0  0  0  0  0  0  0  0  0  0  0  0
  136.5825  152.7511  144.5734 C   0  0  0  0  0  0  0  0  0  0  0  0
  135.5827  152.5121  145.5093 C   0  0  0  0  0  0  0  0  0  0  0  0
  139.9322  151.4080  141.3737 C   0  0  0  0  0  0  0  0  0  0  0  0
  135.6283  151.0416  145.7979 C   0  0  0  0  0  0  0  0  0  0  0  0
  139.6618  150.7206  140.2290 C   0  0  0  0  0  0  0  0  0  0  0  0
  140.5630  150.5753  139.1590 C   0  0  0  0  0  0  0  0  0  0  0  0
  137.2098  150.4561  144.6078 C   0  0  0  0  0  0  0  0  0  0  0  0
  138.2516  149.5525  144.1142 O   0  0  0  0  0  0  0  0  0  0  0  0
  134.5486  150.8034  146.8919 C   0  0  0  0  0  0  0  0  0  0  0  0
  136.3322  149.9544  145.4161 C   0  0  0  0  0  0  0  0  0  0  0  0
  1  2  2  3
  2  3  1  0
  3  4  1  0
  4  5  2  0
  1  6  1  0
  5  7  1  0
  6  8  2  3
  8  9  1  0
  3 10  2  0
 10 11  1  0
  7 12  1  0
  7 13  2  0
 10 13  1  0
M  END
$$$$

     RDKit          3D

 13 14  0  0  0  0  0  0  0  0999 V2000
  139.3423  149.9928  140.5892 C   0  0  0  0  0  0  0  0  0  0  0  0
  138.9530  149.9232  139.3662 C   0  0  0  0  0  0  0  0  0  0  0  0
  138.6126  150.1100  141.6424 C   0  0  0  0  0  0  0  0  0  0  0  0
  137.1875  149.8648  141.8313 C   0  0  0  0  0  0  0  0  0  0  0  0
  136.5143  149.7627  140.5785 C   0  0  0  0  0  0  0  0  0  0  0  0
  139.1751  150.3995  143.1329 C   0  0  0  0  0  0  0  0  0  0  0  0
  138.2221  150.9725  144.0846 C   0  0  0  0  0  0  0  0  0  0  0  0
  139.6660  149.8809  138.1670 C   0  0  0  0  0  0  0  0  0  0  0  0
  136.9203  150.8967  143.8605 C   0  0  0  0  0  0  0  0  0  0  0  0
  136.2936  150.3262  142.8214 C   0  0  0  0  0  0  0  0  0  0  0  0
  136.1111  151.5318  144.9552 C   0  0  0  0  0  0  0  0  0  0  0  0
  137.2397  149.6681  139.2384 C   0  0  0  0  0  0  0  0  0  0  0  0
  135.3284  152.5613  144.8099 C   0  0  0  0  0  0  0  0  0  0  0  0
  1  2  2  0
  1  3  1  0
  3  4  1  0
  4  5  2  0
  3  6  1  0
  6  7  2  0
  2  8  1  0
  7  9  1  0
  4 10  1  0
  9 10  1  0
  9 11  1  0
  2 12  1  0
  5 12  1  0
 11 13  2  0
M  END
$$$$

     RDKit          3D

 13 14  0  0  0  0  0  0  0  0999 V2000
  139.3949  150.7519  142.0137 C   0  0  0  0  0  0  0  0  0  0  0  0
  139.0649  150.4895  140.7536 C   0  0  0  0  0  0  0  0  0  0  0  0
  138.4480  150.6367  143.0431 C   0  0  0  0  0  0  0  0  0  0  0  0
  137.8334  149.9841  140.4385 C   0  0  0  0  0  0  0  0  0  0  0  0
  136.8172  149.7850  141.4636 C   0  0  0  0  0  0  0  0  0  0  0  0
  138.7926  151.0562  144.4368 C   0  0  0  0  0  0  0  0  0  0  0  0
  137.6189  151.6483  145.1213 C   0  0  0  0  0  0  0  0  0  0  0  0
  137.0423  150.3290  142.7058 C   0  0  0  0  0  0  0  0  0  0  0  0
  136.5236  151.4573  145.4403 C   0  0  0  0  0  0  0  0  0  0  0  0
  135.8403  150.3025  145.1080 C   0  0  0  0  0  0  0  0  0  0  0  0
  135.6177  152.4572  146.0993 C   0  0  0  0  0  0  0  0  0  0  0  0
  135.8271  150.2610  143.6124 N   0  0  0  0  0  0  0  0  0  0  0  0
  140.0482  150.5915  139.7083 C   0  0  0  0  0  0  0  0  0  0  0  0
  1  2  2  0
  1  3  1  0
  2  4  1  0
  4  5  2  0
  3  6  1  0
  6  7  2  0
  3  8  2  0
  5  8  1  0
  7  9  1  0
  9 10  2  0
  9 11  1  0
  8 12  1  0
 10 12  1  0
  2 13  1  0
M  END
$$$$

     RDKit          3D

 13 13  0  0  0  0  0  0  0  0999 V2000
  140.3038  150.2150  139.4785 Cl  0  0  0  0  0  0  0  0  0  0  0  0
  138.6786  150.1874  140.5317 C   0  0  0  0  0  0  0  0  0  0  0  0
  137.6385  149.3840  140.0946 C   0  0  0  0  0  0  0  0  0  0  0  0
  137.5435  148.9630  138.7458 C   0  0  0  0  0  0  0  0  0  0  0  0
  138.4874  150.4382  141.7160 C   0  0  0  0  0  0  0  0  0  0  0  0
  137.4116  150.4246  142.5549 C   0  0  0  0  0  0  0  0  0  0  0  0
  136.4818  149.5444  140.7982 C   0  0  0  0  0  0  0  0  0  0  0  0
  137.4234  150.9552  143.9579 C   0  0  0  0  0  0  0  0  0  0  0  0
  138.4811  150.8783  144.8513 C   0  0  0  0  0  0  0  0  0  0  0  0
  136.3573  151.4748  144.7294 C   0  0  0  0  0  0  0  0  0  0  0  0
  136.1486  152.8351  144.7810 C   0  0  0  0  0  0  0  0  0  0  0  0
  136.4032  150.0036  141.9861 N   0  0  0  0  0  0  0  0  0  0  0  0
  137.1208  153.7307  144.5163 C   0  0  0  0  0  0  0  0  0  0  0  0
  1  2  1  0
  2  3  2  0
  3  4  1  0
  2  5  1  0
  5  6  2  0
  3  7  1  0
  6  8  1  0
  8  9  1  0
  8 10  1  0
 10 11  1  0
  6 12  1  0
  7 12  2  0
 11 13  1  0
M  END
$$$$

     RDKit          3D

 13 14  0  0  0  0  0  0  0  0999 V2000
  140.3038  150.2150  139.4785 Cl  0  0  0  0  0  0  0  0  0  0  0  0
  138.6786  150.1874  140.5317 C   0  0  0  0  0  0  0  0  0  0  0  0
  137.6385  149.3840  140.0946 C   0  0  0  0  0  0  0  0  0  0  0  0
  138.8663  150.7187  141.4505 C   0  0  0  0  0  0  0  0  0  0  0  0
  136.5679  149.5915  140.7717 C   0  0  0  0  0  0  0  0  0  0  0  0
  136.4392  150.3739  141.9168 C   0  0  0  0  0  0  0  0  0  0  0  0
  135.2724  150.5937  142.7496 C   0  0  0  0  0  0  0  0  0  0  0  0
  137.7274  150.9737  142.4013 C   0  0  0  0  0  0  0  0  0  0  0  0
  137.7352  151.6286  143.7912 C   0  0  0  0  0  0  0  0  0  0  0  0
  135.7051  151.2773  143.9002 C   0  0  0  0  0  0  0  0  0  0  0  0
  136.7127  151.7375  144.4707 C   0  0  0  0  0  0  0  0  0  0  0  0
  136.8431  152.4182  145.7544 C   0  0  0  0  0  0  0  0  0  0  0  0
  135.7601  153.2762  146.0006 C   0  0  0  0  0  0  0  0  0  0  0  0
  1  2  1  0
  2  3  2  0
  2  4  1  0
  3  5  1  0
  5  6  2  0
  6  7  1  0
  4  8  2  0
  6  8  1  0
  8  9  1  0
  7 10  2  0
  9 11  2  0
 10 11  1  0
 11 12  1  0
 12 13  1  0
M  END
$$$$

     RDKit          3D

 13 14  0  0  0  0  0  0  0  0999 V2000
  140.3038  150.2150  139.4785 Cl  0  0  0  0  0  0  0  0  0  0  0  0
  138.6786  150.1874  140.5317 C   0  0  0  0  0  0  0  0  0  0  0  0
  137.6385  149.3840  140.0946 C   0  0  0  0  0  0  0  0  0  0  0  0
  139.2404  150.7160  141.5759 C   0  0  0  0  0  0  0  0  0  0  0  0
  138.3592  151.0512  142.3776 C   0  0  0  0  0  0  0  0  0  0  0  0
  136.9526  150.5124  142.2952 C   0  0  0  0  0  0  0  0  0  0  0  0
  138.4072  151.7168  143.9009 C   0  0  0  0  0  0  0  0  0  0  0  0
  137.3935  148.7832  139.0047 C   0  0  0  0  0  0  0  0  0  0  0  0
  135.9042  150.8550  143.2900 C   0  0  0  0  0  0  0  0  0  0  0  0
  136.5817  149.8744  141.0868 C   0  0  0  0  0  0  0  0  0  0  0  0
  137.2996  151.8292  144.5257 C   0  0  0  0  0  0  0  0  0  0  0  0
  136.0933  151.4210  144.3571 C   0  0  0  0  0  0  0  0  0  0  0  0
  134.8843  151.7259  145.3706 C   0  0  0  0  0  0  0  0  0  0  0  0
  1  2  1  0
  2  3  1  0
  2  4  2  0
  4  5  1  0
  5  6  2  0
  5  7  1  0
  3  8  1  0
  6  9  1  0
  3 10  2  0
  6 10  1  0
  7 11  2  0
  9 12  2  0
 11 12  1  0
 12 13  1  0
M  END
$$$$

     RDKit          3D

 13 14  0  0  0  0  0  0  0  0999 V2000
  138.9705  151.3131  142.5679 C   0  0  0  0  0  0  0  0  0  0  0  0
  138.6042  152.0888  143.2654 C   0  0  0  0  0  0  0  0  0  0  0  0
  137.4887  151.7640  144.1910 C   0  0  0  0  0  0  0  0  0  0  0  0
  137.1673  150.4135  144.2710 C   0  0  0  0  0  0  0  0  0  0  0  0
  136.7837  152.6380  145.0886 C   0  0  0  0  0  0  0  0  0  0  0  0
  138.5889  149.8386  142.4057 C   0  0  0  0  0  0  0  0  0  0  0  0
  137.0939  153.8636  145.1629 C   0  0  0  0  0  0  0  0  0  0  0  0
  139.0958  149.0319  141.4957 C   0  0  0  0  0  0  0  0  0  0  0  0
  138.9655  149.3989  140.0909 C   0  0  0  0  0  0  0  0  0  0  0  0
  135.6272  152.1482  145.6705 C   0  0  0  0  0  0  0  0  0  0  0  0
  135.4044  150.8287  145.6572 C   0  0  0  0  0  0  0  0  0  0  0  0
  137.5376  149.5318  143.3875 C   0  0  0  0  0  0  0  0  0  0  0  0
  136.0738  149.9893  145.0947 C   0  0  0  0  0  0  0  0  0  0  0  0
  1  2  1  0
  2  3  2  0
  3  4  1  0
  3  5  1  0
  1  6  2  0
  5  7  1  0
  6  8  1  0
  8  9  1  0
  5 10  2  0
 10 11  1  0
  4 12  1  0
  6 12  1  0
  4 13  1  0
 11 13  1  0
M  END
$$$$

     RDKit          3D

 13 14  0  0  0  0  0  0  0  0999 V2000
  139.3423  149.9928  140.5892 C   0  0  0  0  0  0  0  0  0  0  0  0
  138.9530  149.9232  139.3662 C   0  0  0  0  0  0  0  0  0  0  0  0
  138.6126  150.1100  141.6424 C   0  0  0  0  0  0  0  0  0  0  0  0
  137.1875  149.8648  141.8313 C   0  0  0  0  0  0  0  0  0  0  0  0
  136.5143  149.7627  140.5785 C   0  0  0  0  0  0  0  0  0  0  0  0
  139.1422  150.4925  143.0862 C   0  0  0  0  0  0  0  0  0  0  0  0
  138.1958  151.0001  144.0544 C   0  0  0  0  0  0  0  0  0  0  0  0
  136.9048  150.9691  143.8141 C   0  0  0  0  0  0  0  0  0  0  0  0
  136.1202  151.4741  145.0117 C   0  0  0  0  0  0  0  0  0  0  0  0
  136.3884  150.3075  142.8748 C   0  0  0  0  0  0  0  0  0  0  0  0
  139.7331  149.9327  138.2019 C   0  0  0  0  0  0  0  0  0  0  0  0
  137.2691  149.6395  139.2853 C   0  0  0  0  0  0  0  0  0  0  0  0
  135.0966  152.1771  144.8917 C   0  0  0  0  0  0  0  0  0  0  0  0
  1  2  2  0
  1  3  1  0
  3  4  1  0
  4  5  2  0
  3  6  1  0
  6  7  2  0
  7  8  1  0
  8  9  1  0
  4 10  1  0
  8 10  2  0
  2 11  1  0
  2 12  1  0
  5 12  1  0
  9 13  1  0
M  END
$$$$

     RDKit          3D

 13 14  0  0  0  0  0  0  0  0999 V2000
  139.5546  150.5070  140.4440 C   0  0  0  0  0  0  0  0  0  0  0  0
  139.2168  150.0150  139.3722 C   0  0  0  0  0  0  0  0  0  0  0  0
  138.8581  150.3073  141.5852 C   0  0  0  0  0  0  0  0  0  0  0  0
  139.2290  150.3516  142.8905 C   0  0  0  0  0  0  0  0  0  0  0  0
  138.3519  151.0008  143.9747 C   0  0  0  0  0  0  0  0  0  0  0  0
  137.3998  151.4263  143.6194 C   0  0  0  0  0  0  0  0  0  0  0  0
  136.5329  152.2351  144.5998 C   0  0  0  0  0  0  0  0  0  0  0  0
  136.9466  151.2605  142.2215 C   0  0  0  0  0  0  0  0  0  0  0  0
  135.3507  151.6956  145.0820 C   0  0  0  0  0  0  0  0  0  0  0  0
  137.5740  150.6791  141.3291 C   0  0  0  0  0  0  0  0  0  0  0  0
  138.0288  149.3481  139.1430 C   0  0  0  0  0  0  0  0  0  0  0  0
  137.0258  150.0546  140.1449 C   0  0  0  0  0  0  0  0  0  0  0  0
  134.5627  152.4410  146.0780 C   0  0  0  0  0  0  0  0  0  0  0  0
  1  2  2  0
  1  3  1  0
  3  4  1  0
  4  5  2  0
  5  6  1  0
  6  7  1  0
  6  8  2  0
  7  9  2  3
  3 10  2  0
  8 10  1  0
  2 11  1  0
 10 12  1  0
 11 12  2  0
  9 13  1  0
M  END
$$$$

     RDKit          3D

 13 14  0  0  0  0  0  0  0  0999 V2000
  140.3038  150.2150  139.4785 Cl  0  0  0  0  0  0  0  0  0  0  0  0
  138.6786  150.1874  140.5317 C   0  0  0  0  0  0  0  0  0  0  0  0
  137.6385  149.3840  140.0946 C   0  0  0  0  0  0  0  0  0  0  0  0
  139.0347  150.8837  141.6176 C   0  0  0  0  0  0  0  0  0  0  0  0
  136.4870  149.4739  141.0114 C   0  0  0  0  0  0  0  0  0  0  0  0
  135.2468  148.9969  140.4739 C   0  0  0  0  0  0  0  0  0  0  0  0
  136.7778  150.2789  142.0941 C   0  0  0  0  0  0  0  0  0  0  0  0
  135.6337  150.4006  143.1290 C   0  0  0  0  0  0  0  0  0  0  0  0
  136.1409  151.1664  144.3898 C   0  0  0  0  0  0  0  0  0  0  0  0
  137.3706  150.7740  144.7332 C   0  0  0  0  0  0  0  0  0  0  0  0
  135.4370  152.1466  145.0649 C   0  0  0  0  0  0  0  0  0  0  0  0
  138.5121  150.9494  143.7889 C   0  0  0  0  0  0  0  0  0  0  0  0
  138.0517  150.6889  142.5694 C   0  0  0  0  0  0  0  0  0  0  0  0
  1  2  1  0
  2  3  2  0
  2  4  1  0
  3  5  1  0
  5  6  1  0
  5  7  2  0
  7  8  1  0
  8  9  1  0
  9 10  2  0
  9 11  1  0
 10 12  1  0
  4 13  2  0
  7 13  1  0
 12 13  1  0
M  END
$$$$

     RDKit          3D

 13 14  0  0  0  0  0  0  0  0999 V2000
  140.3038  150.2150  139.4785 Cl  0  0  0  0  0  0  0  0  0  0  0  0
  138.6786  150.1874  140.5317 C   0  0  0  0  0  0  0  0  0  0  0  0
  137.6385  149.3840  140.0946 C   0  0  0  0  0  0  0  0  0  0  0  0
  139.2404  150.7160  141.5759 C   0  0  0  0  0  0  0  0  0  0  0  0
  138.3592  151.0512  142.3776 C   0  0  0  0  0  0  0  0  0  0  0  0
  136.9526  150.5124  142.2952 C   0  0  0  0  0  0  0  0  0  0  0  0
  138.4072  151.7168  143.9009 C   0  0  0  0  0  0  0  0  0  0  0  0
  135.8504  150.7944  143.2209 C   0  0  0  0  0  0  0  0  0  0  0  0
  136.5561  149.7374  140.9435 C   0  0  0  0  0  0  0  0  0  0  0  0
  136.3179  151.4521  144.2824 C   0  0  0  0  0  0  0  0  0  0  0  0
  135.1064  151.7136  145.3229 C   0  0  0  0  0  0  0  0  0  0  0  0
  135.5291  152.7080  146.3192 C   0  0  0  0  0  0  0  0  0  0  0  0
  137.5474  151.9039  144.6758 C   0  0  0  0  0  0  0  0  0  0  0  0
  1  2  1  0
  2  3  1  0
  2  4  2  0
  4  5  1  0
  5  6  2  0
  5  7  1  0
  6  8  1  0
  3  9  2  0
  6  9  1  0
  8 10  2  0
 10 11  1  0
 11 12  1  0
  7 13  2  0
 10 13  1  0
M  END
$$$$

     RDKit          3D

 13 14  0  0  0  0  0  0  0  0999 V2000
  140.3038  150.2150  139.4785 Cl  0  0  0  0  0  0  0  0  0  0  0  0
  138.6786  150.1874  140.5317 C   0  0  0  0  0  0  0  0  0  0  0  0
  137.6385  149.3840  140.0946 C   0  0  0  0  0  0  0  0  0  0  0  0
  139.2404  150.7160  141.5759 C   0  0  0  0  0  0  0  0  0  0  0  0
  138.2225  150.6931  142.6929 C   0  0  0  0  0  0  0  0  0  0  0  0
  136.9613  150.0836  142.4469 C   0  0  0  0  0  0  0  0  0  0  0  0
  135.9487  150.2526  143.4885 C   0  0  0  0  0  0  0  0  0  0  0  0
  136.3619  151.1927  144.4166 C   0  0  0  0  0  0  0  0  0  0  0  0
  135.7653  151.7694  145.4030 C   0  0  0  0  0  0  0  0  0  0  0  0
  136.2760  152.9011  146.1753 C   0  0  0  0  0  0  0  0  0  0  0  0
  136.5455  149.5365  141.1563 C   0  0  0  0  0  0  0  0  0  0  0  0
  138.4218  151.2694  144.0337 C   0  0  0  0  0  0  0  0  0  0  0  0
  137.6184  151.4635  144.8285 C   0  0  0  0  0  0  0  0  0  0  0  0
  1  2  1  0
  2  3  1  0
  2  4  2  0
  4  5  1  0
  5  6  2  0
  6  7  1  0
  7  8  1  0
  8  9  2  3
  9 10  1  0
  3 11  2  0
  6 11  1  0
  5 12  1  0
  8 13  1  0
 12 13  2  0
M  END
$$$$

     RDKit          3D

 13 14  0  0  0  0  0  0  0  0999 V2000
  140.3038  150.2150  139.4785 Cl  0  0  0  0  0  0  0  0  0  0  0  0
  138.6786  150.1874  140.5317 C   0  0  0  0  0  0  0  0  0  0  0  0
  137.6385  149.3840  140.0946 C   0  0  0  0  0  0  0  0  0  0  0  0
  139.2404  150.7160  141.5759 C   0  0  0  0  0  0  0  0  0  0  0  0
  138.3592  151.0512  142.3776 C   0  0  0  0  0  0  0  0  0  0  0  0
  136.5132  149.6320  140.9989 C   0  0  0  0  0  0  0  0  0  0  0  0
  138.6485  151.8145  143.7097 C   0  0  0  0  0  0  0  0  0  0  0  0
  135.2230  149.4126  140.8574 C   0  0  0  0  0  0  0  0  0  0  0  0
  137.6252  151.8925  144.5437 C   0  0  0  0  0  0  0  0  0  0  0  0
  136.4813  151.4430  144.2818 C   0  0  0  0  0  0  0  0  0  0  0  0
  136.8924  150.4758  142.1981 C   0  0  0  0  0  0  0  0  0  0  0  0
  135.8993  150.7467  143.1292 C   0  0  0  0  0  0  0  0  0  0  0  0
  135.4119  151.8513  145.4934 C   0  0  0  0  0  0  0  0  0  0  0  0
  1  2  1  0
  2  3  1  0
  2  4  2  0
  4  5  1  0
  3  6  2  0
  5  7  1  0
  6  8  1  0
  7  9  2  0
  9 10  1  0
  5 11  2  0
  6 11  1  0
 10 12  2  0
 11 12  1  0
 10 13  1  0
M  END
$$$$

     RDKit          3D

 13 14  0  0  0  0  0  0  0  0999 V2000
  138.9705  151.3131  142.5679 C   0  0  0  0  0  0  0  0  0  0  0  0
  138.6042  152.0888  143.2654 C   0  0  0  0  0  0  0  0  0  0  0  0
  139.7531  151.4376  141.3509 C   0  0  0  0  0  0  0  0  0  0  0  0
  137.7656  151.7117  144.3553 C   0  0  0  0  0  0  0  0  0  0  0  0
  136.9071  152.4952  145.1793 C   0  0  0  0  0  0  0  0  0  0  0  0
  139.5680  150.5566  140.2446 C   0  0  0  0  0  0  0  0  0  0  0  0
  137.0955  153.8090  145.1300 C   0  0  0  0  0  0  0  0  0  0  0  0
  138.5854  149.5207  140.6466 C   0  0  0  0  0  0  0  0  0  0  0  0
  136.0552  152.0124  145.7506 C   0  0  0  0  0  0  0  0  0  0  0  0
  138.1591  150.0533  142.4514 C   0  0  0  0  0  0  0  0  0  0  0  0
  137.4949  150.0289  143.8229 C   0  0  0  0  0  0  0  0  0  0  0  0
  134.9170  152.7682  146.2521 C   0  0  0  0  0  0  0  0  0  0  0  0
  137.8885  149.1913  141.5677 N   0  0  0  0  0  0  0  0  0  0  0  0
  1  2  1  0
  1  3  1  0
  2  4  2  0
  4  5  1  0
  3  6  2  0
  5  7  1  0
  6  8  1  0
  5  9  2  3
  1 10  2  0
  4 11  1  0
 10 11  1  0
  9 12  1  0
  8 13  2  0
 10 13  1  0
M  END
$$$$

     RDKit          3D

 13 14  0  0  0  0  0  0  0  0999 V2000
  138.9705  151.3131  142.5679 C   0  0  0  0  0  0  0  0  0  0  0  0
  138.6042  152.0888  143.2654 C   0  0  0  0  0  0  0  0  0  0  0  0
  137.6600  151.8318  144.0475 C   0  0  0  0  0  0  0  0  0  0  0  0
  136.5825  152.7511  144.5734 C   0  0  0  0  0  0  0  0  0  0  0  0
  135.5827  152.5121  145.5093 C   0  0  0  0  0  0  0  0  0  0  0  0
  139.9322  151.4080  141.3737 C   0  0  0  0  0  0  0  0  0  0  0  0
  135.6283  151.0416  145.7979 C   0  0  0  0  0  0  0  0  0  0  0  0
  137.2911  150.5061  144.5502 C   0  0  0  0  0  0  0  0  0  0  0  0
  134.5918  150.7438  146.8312 C   0  0  0  0  0  0  0  0  0  0  0  0
  139.6732  150.6665  140.2632 C   0  0  0  0  0  0  0  0  0  0  0  0
  138.5185  149.9140  140.2639 C   0  0  0  0  0  0  0  0  0  0  0  0
  138.3149  150.0641  142.1563 C   0  0  0  0  0  0  0  0  0  0  0  0
  136.3655  150.1214  145.4831 C   0  0  0  0  0  0  0  0  0  0  0  0
  1  2  2  3
  2  3  1  0
  3  4  1  0
  4  5  2  0
  1  6  1  0
  5  7  1  0
  3  8  2  0
  7  9  1  0
  6 10  2  0
 10 11  1  0
  1 12  1  0
 11 12  2  0
  7 13  2  0
  8 13  1  0
M  END
$$$$

     RDKit          3D

 13 14  0  0  0  0  0  0  0  0999 V2000
  140.3038  150.2150  139.4785 Cl  0  0  0  0  0  0  0  0  0  0  0  0
  138.6786  150.1874  140.5317 C   0  0  0  0  0  0  0  0  0  0  0  0
  137.6385  149.3840  140.0946 C   0  0  0  0  0  0  0  0  0  0  0  0
  138.7506  150.9507  141.6713 C   0  0  0  0  0  0  0  0  0  0  0  0
  136.5527  149.6212  140.7745 C   0  0  0  0  0  0  0  0  0  0  0  0
  135.2919  149.0327  140.1418 C   0  0  0  0  0  0  0  0  0  0  0  0
  136.5287  150.4782  141.8364 C   0  0  0  0  0  0  0  0  0  0  0  0
  135.3193  150.6924  142.7156 C   0  0  0  0  0  0  0  0  0  0  0  0
  135.7668  151.4926  143.9256 C   0  0  0  0  0  0  0  0  0  0  0  0
  137.1793  151.6857  143.9549 C   0  0  0  0  0  0  0  0  0  0  0  0
  137.6714  151.0567  142.4962 C   0  0  0  0  0  0  0  0  0  0  0  0
  137.9811  152.2328  144.8145 C   0  0  0  0  0  0  0  0  0  0  0  0
  134.9079  151.9353  144.9570 C   0  0  0  0  0  0  0  0  0  0  0  0
  1  2  1  0
  2  3  2  0
  2  4  1  0
  3  5  1  0
  5  6  1  0
  5  7  2  0
  7  8  1  0
  8  9  2  0
  9 10  1  0
  4 11  2  0
  7 11  1  0
 10 11  1  0
 10 12  1  0
  9 13  1  0
M  END
$$$$

     RDKit          3D

 13 14  0  0  0  0  0  0  0  0999 V2000
  140.3038  150.2150  139.4785 Cl  0  0  0  0  0  0  0  0  0  0  0  0
  138.6786  150.1874  140.5317 C   0  0  0  0  0  0  0  0  0  0  0  0
  137.6385  149.3840  140.0946 C   0  0  0  0  0  0  0  0  0  0  0  0
  136.4399  149.4579  140.8211 C   0  0  0  0  0  0  0  0  0  0  0  0
  139.1335  150.7559  141.5073 C   0  0  0  0  0  0  0  0  0  0  0  0
  138.1148  150.7992  142.6522 C   0  0  0  0  0  0  0  0  0  0  0  0
  135.1531  149.2335  140.4493 C   0  0  0  0  0  0  0  0  0  0  0  0
  138.4182  151.3986  143.9384 C   0  0  0  0  0  0  0  0  0  0  0  0
  136.7814  150.4866  142.9788 C   0  0  0  0  0  0  0  0  0  0  0  0
  136.2506  150.8831  144.2272 C   0  0  0  0  0  0  0  0  0  0  0  0
  135.9888  150.0250  141.9379 C   0  0  0  0  0  0  0  0  0  0  0  0
  135.0749  150.7889  144.7145 C   0  0  0  0  0  0  0  0  0  0  0  0
  137.4097  151.3822  144.8026 C   0  0  0  0  0  0  0  0  0  0  0  0
  1  2  1  0
  2  3  2  0
  3  4  1  0
  2  5  1  0
  5  6  2  0
  4  7  1  0
  6  8  1  0
  6  9  1  0
  9 10  2  0
  4 11  2  0
  9 11  1  0
 10 12  1  0
  8 13  2  0
 10 13  1  0
M  END
$$$$

     RDKit          3D

 13 14  0  0  0  0  0  0  0  0999 V2000
  140.3038  150.2150  139.4785 Cl  0  0  0  0  0  0  0  0  0  0  0  0
  138.6786  150.1874  140.5317 C   0  0  0  0  0  0  0  0  0  0  0  0
  137.6385  149.3840  140.0946 C   0  0  0  0  0  0  0  0  0  0  0  0
  138.8663  150.7187  141.4505 C   0  0  0  0  0  0  0  0  0  0  0  0
  136.5679  149.5915  140.7717 C   0  0  0  0  0  0  0  0  0  0  0  0
  135.2802  149.0558  140.2099 C   0  0  0  0  0  0  0  0  0  0  0  0
  136.6063  150.4574  141.8322 C   0  0  0  0  0  0  0  0  0  0  0  0
  135.4286  150.7337  142.7297 C   0  0  0  0  0  0  0  0  0  0  0  0
  137.7725  151.0495  142.3401 C   0  0  0  0  0  0  0  0  0  0  0  0
  137.9814  151.8089  143.5885 C   0  0  0  0  0  0  0  0  0  0  0  0
  135.6438  151.3324  143.9797 C   0  0  0  0  0  0  0  0  0  0  0  0
  136.6600  151.8211  144.3949 C   0  0  0  0  0  0  0  0  0  0  0  0
  136.8658  152.6301  145.8269 Cl  0  0  0  0  0  0  0  0  0  0  0  0
  1  2  1  0
  2  3  2  0
  2  4  1  0
  3  5  1  0
  5  6  1  0
  5  7  2  0
  7  8  1  0
  4  9  2  0
  7  9  1  0
  9 10  1  0
  8 11  2  0
 10 12  2  0
 11 12  1  0
 12 13  1  0
M  END
$$$$

     RDKit          3D

 13 14  0  0  0  0  0  0  0  0999 V2000
  138.7090  151.1480  142.6270 C   0  0  0  0  0  0  0  0  0  0  0  0
  138.5232  151.9372  143.5110 C   0  0  0  0  0  0  0  0  0  0  0  0
  137.3801  151.6562  144.3958 C   0  0  0  0  0  0  0  0  0  0  0  0
  139.7036  151.1026  141.6212 C   0  0  0  0  0  0  0  0  0  0  0  0
  136.7239  150.4190  144.0179 C   0  0  0  0  0  0  0  0  0  0  0  0
  137.9015  150.0241  142.3223 C   0  0  0  0  0  0  0  0  0  0  0  0
  138.2278  149.2932  141.1442 C   0  0  0  0  0  0  0  0  0  0  0  0
  136.9445  149.6821  143.0247 C   0  0  0  0  0  0  0  0  0  0  0  0
  137.0946  152.5090  145.4858 O   0  0  0  0  0  0  0  0  0  0  0  0
  137.4979  148.6970  140.3634 C   0  0  0  0  0  0  0  0  0  0  0  0
  139.6019  150.1927  140.6526 C   0  0  0  0  0  0  0  0  0  0  0  0
  140.0921  149.8811  139.7313 O   0  0  0  0  0  0  0  0  0  0  0  0
  135.9007  153.0811  145.3472 C   0  0  0  0  0  0  0  0  0  0  0  0
  1  2  1  0
  2  3  2  0
  1  4  1  0
  3  5  1  0
  1  6  2  0
  6  7  1  0
  5  8  2  0
  6  8  1  0
  3  9  1  0
  7 10  1  0
  4 11  1  0
  7 11  1  0
 11 12  2  0
  9 13  1  0
M  END
$$$$

     RDKit          3D

 13 14  0  0  0  0  0  0  0  0999 V2000
  140.3038  150.2150  139.4785 Cl  0  0  0  0  0  0  0  0  0  0  0  0
  138.6786  150.1874  140.5317 C   0  0  0  0  0  0  0  0  0  0  0  0
  137.6385  149.3840  140.0946 C   0  0  0  0  0  0  0  0  0  0  0  0
  139.0347  150.8837  141.6176 C   0  0  0  0  0  0  0  0  0  0  0  0
  136.4870  149.4739  141.0114 C   0  0  0  0  0  0  0  0  0  0  0  0
  136.6060  150.3319  142.1494 C   0  0  0  0  0  0  0  0  0  0  0  0
  135.4599  150.4857  143.0766 C   0  0  0  0  0  0  0  0  0  0  0  0
  135.8731  151.2537  144.3106 C   0  0  0  0  0  0  0  0  0  0  0  0
  137.1297  151.3206  144.7078 C   0  0  0  0  0  0  0  0  0  0  0  0
  138.1205  151.1550  143.5616 C   0  0  0  0  0  0  0  0  0  0  0  0
  137.8226  150.8573  142.5296 C   0  0  0  0  0  0  0  0  0  0  0  0
  134.8000  151.6993  145.1661 C   0  0  0  0  0  0  0  0  0  0  0  0
  135.1765  152.0721  146.5309 C   0  0  0  0  0  0  0  0  0  0  0  0
  1  2  1  0
  2  3  2  0
  2  4  1  0
  3  5  1  0
  5  6  2  0
  6  7  1  0
  7  8  1  0
  8  9  1  0
  9 10  1  0
  4 11  2  0
  6 11  1  0
 10 11  1  0
  8 12  2  3
 12 13  1  0
M  END
$$$$

     RDKit          3D

 13 14  0  0  0  0  0  0  0  0999 V2000
  140.3038  150.2150  139.4785 Cl  0  0  0  0  0  0  0  0  0  0  0  0
  138.6786  150.1874  140.5317 C   0  0  0  0  0  0  0  0  0  0  0  0
  137.6385  149.3840  140.0946 C   0  0  0  0  0  0  0  0  0  0  0  0
  138.8663  150.7187  141.4505 C   0  0  0  0  0  0  0  0  0  0  0  0
  136.5679  149.5915  140.7717 C   0  0  0  0  0  0  0  0  0  0  0  0
  135.2802  149.0558  140.2099 C   0  0  0  0  0  0  0  0  0  0  0  0
  136.6063  150.4574  141.8322 C   0  0  0  0  0  0  0  0  0  0  0  0
  135.4286  150.7337  142.7297 C   0  0  0  0  0  0  0  0  0  0  0  0
  135.9364  151.5296  143.9345 C   0  0  0  0  0  0  0  0  0  0  0  0
  135.1724  151.8786  145.0130 C   0  0  0  0  0  0  0  0  0  0  0  0
  137.8575  151.0382  142.2914 C   0  0  0  0  0  0  0  0  0  0  0  0
  137.3081  151.8511  143.9516 C   0  0  0  0  0  0  0  0  0  0  0  0
  135.7328  152.8770  145.9517 C   0  0  0  0  0  0  0  0  0  0  0  0
  1  2  1  0
  2  3  2  0
  2  4  1  0
  3  5  1  0
  5  6  1  0
  5  7  2  0
  7  8  1  0
  8  9  2  0
  9 10  1  0
  4 11  2  0
  7 11  1  0
  9 12  1  0
 11 12  1  0
 10 13  1  0
M  END
$$$$

     RDKit          3D

 13 14  0  0  0  0  0  0  0  0999 V2000
  139.3423  149.9928  140.5892 C   0  0  0  0  0  0  0  0  0  0  0  0
  138.9530  149.9232  139.3662 C   0  0  0  0  0  0  0  0  0  0  0  0
  138.6126  150.1100  141.6424 C   0  0  0  0  0  0  0  0  0  0  0  0
  137.1875  149.8648  141.8313 C   0  0  0  0  0  0  0  0  0  0  0  0
  136.5143  149.7627  140.5785 C   0  0  0  0  0  0  0  0  0  0  0  0
  139.1422  150.4925  143.0862 C   0  0  0  0  0  0  0  0  0  0  0  0
  138.1958  151.0001  144.0544 C   0  0  0  0  0  0  0  0  0  0  0  0
  136.7353  150.3949  143.0646 C   0  0  0  0  0  0  0  0  0  0  0  0
  135.1509  149.5438  140.5010 C   0  0  0  0  0  0  0  0  0  0  0  0
  137.0479  150.7366  144.0791 C   0  0  0  0  0  0  0  0  0  0  0  0
  136.2382  151.2649  145.1842 C   0  0  0  0  0  0  0  0  0  0  0  0
  135.2206  152.0994  144.9270 C   0  0  0  0  0  0  0  0  0  0  0  0
  137.5133  149.6437  139.1708 C   0  0  0  0  0  0  0  0  0  0  0  0
  1  2  2  0
  1  3  1  0
  3  4  1  0
  4  5  2  0
  3  6  1  0
  6  7  2  0
  4  8  1  0
  5  9  1  0
  7 10  1  0
  8 10  2  0
 10 11  1  0
 11 12  1  0
  2 13  1  0
  5 13  1  0
M  END
$$$$

     RDKit          3D

 13 14  0  0  0  0  0  0  0  0999 V2000
  140.3038  150.2150  139.4785 Cl  0  0  0  0  0  0  0  0  0  0  0  0
  138.6786  150.1874  140.5317 C   0  0  0  0  0  0  0  0  0  0  0  0
  137.6385  149.3840  140.0946 C   0  0  0  0  0  0  0  0  0  0  0  0
  138.8663  150.7187  141.4505 C   0  0  0  0  0  0  0  0  0  0  0  0
  136.5679  149.5915  140.7717 C   0  0  0  0  0  0  0  0  0  0  0  0
  136.4392  150.3739  141.9168 C   0  0  0  0  0  0  0  0  0  0  0  0
  135.2724  150.5937  142.7496 C   0  0  0  0  0  0  0  0  0  0  0  0
  135.5954  151.2901  144.0210 C   0  0  0  0  0  0  0  0  0  0  0  0
  137.7088  150.9730  142.4163 C   0  0  0  0  0  0  0  0  0  0  0  0
  137.8114  151.6581  143.6898 C   0  0  0  0  0  0  0  0  0  0  0  0
  134.3204  151.5100  144.9088 C   0  0  0  0  0  0  0  0  0  0  0  0
  136.7831  151.7843  144.5380 C   0  0  0  0  0  0  0  0  0  0  0  0
  137.0387  152.3845  145.7369 C   0  0  0  0  0  0  0  0  0  0  0  0
  1  2  1  0
  2  3  2  0
  2  4  1  0
  3  5  1  0
  5  6  2  0
  6  7  1  0
  7  8  2  0
  4  9  2  0
  6  9  1  0
  9 10  1  0
  8 11  1  0
  8 12  1  0
 10 12  1  0
 12 13  2  0
M  END
$$$$

     RDKit          3D

 13 14  0  0  0  0  0  0  0  0999 V2000
  138.9705  151.3131  142.5679 C   0  0  0  0  0  0  0  0  0  0  0  0
  138.6042  152.0888  143.2654 C   0  0  0  0  0  0  0  0  0  0  0  0
  137.4887  151.7640  144.1910 C   0  0  0  0  0  0  0  0  0  0  0  0
  137.1673  150.4135  144.2710 C   0  0  0  0  0  0  0  0  0  0  0  0
  136.7837  152.6380  145.0886 C   0  0  0  0  0  0  0  0  0  0  0  0
  138.5889  149.8386  142.4057 C   0  0  0  0  0  0  0  0  0  0  0  0
  137.0939  153.8636  145.1629 C   0  0  0  0  0  0  0  0  0  0  0  0
  139.0958  149.0319  141.4957 C   0  0  0  0  0  0  0  0  0  0  0  0
  135.6368  152.1771  145.3913 C   0  0  0  0  0  0  0  0  0  0  0  0
  135.3317  150.8634  145.3879 C   0  0  0  0  0  0  0  0  0  0  0  0
  137.4908  149.6126  143.3782 C   0  0  0  0  0  0  0  0  0  0  0  0
  134.2642  150.3728  146.2802 C   0  0  0  0  0  0  0  0  0  0  0  0
  136.3024  149.9642  144.8696 N   0  0  0  0  0  0  0  0  0  0  0  0
  1  2  1  0
  2  3  2  0
  3  4  1  0
  3  5  1  0
  1  6  2  0
  5  7  1  0
  6  8  1  0
  5  9  2  0
  9 10  1  0
  4 11  2  0
  6 11  1  0
 10 12  1  0
  4 13  1  0
 10 13  2  0
M  END
$$$$

     RDKit          3D

 13 14  0  0  0  0  0  0  0  0999 V2000
  139.3423  149.9928  140.5892 C   0  0  0  0  0  0  0  0  0  0  0  0
  138.9530  149.9232  139.3662 C   0  0  0  0  0  0  0  0  0  0  0  0
  138.6126  150.1100  141.6424 C   0  0  0  0  0  0  0  0  0  0  0  0
  137.1875  149.8648  141.8313 C   0  0  0  0  0  0  0  0  0  0  0  0
  136.5143  149.7627  140.5785 C   0  0  0  0  0  0  0  0  0  0  0  0
  139.1422  150.4925  143.0862 C   0  0  0  0  0  0  0  0  0  0  0  0
  138.1958  151.0001  144.0544 C   0  0  0  0  0  0  0  0  0  0  0  0
  139.6674  149.8808  138.1647 C   0  0  0  0  0  0  0  0  0  0  0  0
  136.4892  150.1367  143.0242 C   0  0  0  0  0  0  0  0  0  0  0  0
  137.0902  150.6935  144.1028 C   0  0  0  0  0  0  0  0  0  0  0  0
  135.1564  149.5820  140.4604 C   0  0  0  0  0  0  0  0  0  0  0  0
  137.3672  149.7076  139.3147 C   0  0  0  0  0  0  0  0  0  0  0  0
  136.0648  151.0706  145.4516 C   0  0  0  0  0  0  0  0  0  0  0  0
  1  2  2  0
  1  3  1  0
  3  4  1  0
  4  5  2  0
  3  6  1  0
  6  7  2  0
  2  8  1  0
  4  9  1  0
  7 10  1  0
  9 10  2  0
  5 11  1  0
  2 12  1  0
  5 12  1  0
 10 13  1  0
M  END
$$$$

     RDKit          3D

 13 14  0  0  0  0  0  0  0  0999 V2000
  140.3038  150.2150  139.4785 Cl  0  0  0  0  0  0  0  0  0  0  0  0
  138.6786  150.1874  140.5317 C   0  0  0  0  0  0  0  0  0  0  0  0
  137.6385  149.3840  140.0946 C   0  0  0  0  0  0  0  0  0  0  0  0
  136.4399  149.4579  140.8211 C   0  0  0  0  0  0  0  0  0  0  0  0
  139.1335  150.7559  141.5073 C   0  0  0  0  0  0  0  0  0  0  0  0
  138.1148  150.7992  142.6522 C   0  0  0  0  0  0  0  0  0  0  0  0
  135.1531  149.2335  140.4493 C   0  0  0  0  0  0  0  0  0  0  0  0
  138.4182  151.3986  143.9384 C   0  0  0  0  0  0  0  0  0  0  0  0
  136.7814  150.4866  142.9788 C   0  0  0  0  0  0  0  0  0  0  0  0
  136.2506  150.8831  144.2272 C   0  0  0  0  0  0  0  0  0  0  0  0
  135.9888  150.0250  141.9379 C   0  0  0  0  0  0  0  0  0  0  0  0
  135.0749  150.7889  144.7145 C   0  0  0  0  0  0  0  0  0  0  0  0
  137.4249  151.3417  144.7821 N   0  0  0  0  0  0  0  0  0  0  0  0
  1  2  1  0
  2  3  2  0
  3  4  1  0
  2  5  1  0
  5  6  2  0
  4  7  1  0
  6  8  1  0
  6  9  1  0
  9 10  2  0
  4 11  2  0
  9 11  1  0
 10 12  1  0
  8 13  2  0
 10 13  1  0
M  END
$$$$

     RDKit          3D

 13 14  0  0  0  0  0  0  0  0999 V2000
  140.3038  150.2150  139.4785 Cl  0  0  0  0  0  0  0  0  0  0  0  0
  138.6786  150.1874  140.5317 C   0  0  0  0  0  0  0  0  0  0  0  0
  137.6385  149.3840  140.0946 C   0  0  0  0  0  0  0  0  0  0  0  0
  138.7506  150.9507  141.6713 C   0  0  0  0  0  0  0  0  0  0  0  0
  136.5527  149.6212  140.7745 C   0  0  0  0  0  0  0  0  0  0  0  0
  135.2919  149.0327  140.1418 C   0  0  0  0  0  0  0  0  0  0  0  0
  136.5287  150.4782  141.8364 C   0  0  0  0  0  0  0  0  0  0  0  0
  135.3193  150.6924  142.7156 C   0  0  0  0  0  0  0  0  0  0  0  0
  135.7668  151.4926  143.9256 C   0  0  0  0  0  0  0  0  0  0  0  0
  137.7598  151.1044  142.3481 C   0  0  0  0  0  0  0  0  0  0  0  0
  137.6868  151.8625  143.6418 S   0  0  0  0  0  0  0  0  0  0  0  0
  134.3772  151.5932  144.8401 Cl  0  0  0  0  0  0  0  0  0  0  0  0
  136.6399  152.0865  144.5531 C   0  0  0  0  0  0  0  0  0  0  0  0
  1  2  1  0
  2  3  2  0
  2  4  1  0
  3  5  1  0
  5  6  1  0
  5  7  2  0
  7  8  1  0
  8  9  2  0
  4 10  2  0
  7 10  1  0
 10 11  1  0
  9 12  1  0
  9 13  1  0
 11 13  2  0
M  END
$$$$

     RDKit          3D

 13 14  0  0  0  0  0  0  0  0999 V2000
  139.5546  150.5070  140.4440 C   0  0  0  0  0  0  0  0  0  0  0  0
  139.2168  150.0150  139.3722 C   0  0  0  0  0  0  0  0  0  0  0  0
  138.8581  150.3073  141.5852 C   0  0  0  0  0  0  0  0  0  0  0  0
  139.2290  150.3516  142.8905 C   0  0  0  0  0  0  0  0  0  0  0  0
  138.3519  151.0008  143.9747 C   0  0  0  0  0  0  0  0  0  0  0  0
  137.3998  151.4263  143.6194 C   0  0  0  0  0  0  0  0  0  0  0  0
  136.5329  152.2351  144.5998 C   0  0  0  0  0  0  0  0  0  0  0  0
  137.8483  149.5152  139.3347 C   0  0  0  0  0  0  0  0  0  0  0  0
  135.3557  151.6310  145.1329 C   0  0  0  0  0  0  0  0  0  0  0  0
  137.3355  149.0211  138.0895 C   0  0  0  0  0  0  0  0  0  0  0  0
  137.1441  149.6217  140.5293 C   0  0  0  0  0  0  0  0  0  0  0  0
  137.4450  150.0975  141.5213 C   0  0  0  0  0  0  0  0  0  0  0  0
  136.6555  150.6207  142.6226 N   0  0  0  0  0  0  0  0  0  0  0  0
  1  2  2  0
  1  3  1  0
  3  4  1  0
  4  5  2  0
  5  6  1  0
  6  7  1  0
  2  8  1  0
  7  9  1  0
  8 10  1  0
  8 11  2  0
  3 12  2  0
 11 12  1  0
  6 13  1  0
 12 13  1  0
M  END
$$$$

     RDKit          3D

 13 14  0  0  0  0  0  0  0  0999 V2000
  139.5546  150.5070  140.4440 C   0  0  0  0  0  0  0  0  0  0  0  0
  139.2168  150.0150  139.3722 C   0  0  0  0  0  0  0  0  0  0  0  0
  138.8581  150.3073  141.5852 C   0  0  0  0  0  0  0  0  0  0  0  0
  139.2290  150.3516  142.8905 C   0  0  0  0  0  0  0  0  0  0  0  0
  138.3519  151.0008  143.9747 C   0  0  0  0  0  0  0  0  0  0  0  0
  137.0523  151.0914  143.5474 C   0  0  0  0  0  0  0  0  0  0  0  0
  136.6860  150.8725  142.2137 C   0  0  0  0  0  0  0  0  0  0  0  0
  137.8001  149.5956  139.2368 C   0  0  0  0  0  0  0  0  0  0  0  0
  137.2216  149.1364  138.1693 C   0  0  0  0  0  0  0  0  0  0  0  0
  137.4603  150.4510  141.2574 C   0  0  0  0  0  0  0  0  0  0  0  0
  136.8766  149.9721  140.3143 C   0  0  0  0  0  0  0  0  0  0  0  0
  136.0800  151.5272  144.6936 C   0  0  0  0  0  0  0  0  0  0  0  0
  136.1628  151.4751  145.8506 C   0  0  0  0  0  0  0  0  0  0  0  0
  1  2  2  0
  1  3  1  0
  3  4  1  0
  4  5  2  0
  5  6  1  0
  6  7  2  0
  2  8  1  0
  8  9  2  0
  3 10  2  0
  7 10  1  0
  8 11  1  0
 10 11  1  0
  6 12  1  0
 12 13  2  0
M  END
$$$$

     RDKit          3D

 13 14  0  0  0  0  0  0  0  0999 V2000
  139.3423  149.9928  140.5892 C   0  0  0  0  0  0  0  0  0  0  0  0
  138.9530  149.9232  139.3662 C   0  0  0  0  0  0  0  0  0  0  0  0
  138.6126  150.1100  141.6424 C   0  0  0  0  0  0  0  0  0  0  0  0
  137.1875  149.8648  141.8313 C   0  0  0  0  0  0  0  0  0  0  0  0
  136.5143  149.7627  140.5785 C   0  0  0  0  0  0  0  0  0  0  0  0
  139.1422  150.4925  143.0862 C   0  0  0  0  0  0  0  0  0  0  0  0
  138.1958  151.0001  144.0544 C   0  0  0  0  0  0  0  0  0  0  0  0
  136.9048  150.9691  143.8141 C   0  0  0  0  0  0  0  0  0  0  0  0
  136.2970  150.3281  142.8163 C   0  0  0  0  0  0  0  0  0  0  0  0
  137.3439  149.6290  139.2996 C   0  0  0  0  0  0  0  0  0  0  0  0
  136.0930  151.7670  144.7066 C   0  0  0  0  0  0  0  0  0  0  0  0
  135.2416  151.2168  145.7037 C   0  0  0  0  0  0  0  0  0  0  0  0
  136.0750  153.2055  144.7544 C   0  0  0  0  0  0  0  0  0  0  0  0
  1  2  2  0
  1  3  1  0
  3  4  1  0
  4  5  2  0
  3  6  1  0
  6  7  2  0
  7  8  1  0
  4  9  1  0
  8  9  1  0
  2 10  1  0
  5 10  1  0
  8 11  1  0
 11 12  1  0
 11 13  2  0
M  END
$$$$

     RDKit          3D

 13 14  0  0  0  0  0  0  0  0999 V2000
  138.9705  151.3131  142.5679 C   0  0  0  0  0  0  0  0  0  0  0  0
  138.6042  152.0888  143.2654 C   0  0  0  0  0  0  0  0  0  0  0  0
  137.4887  151.7640  144.1910 C   0  0  0  0  0  0  0  0  0  0  0  0
  137.1673  150.4135  144.2710 C   0  0  0  0  0  0  0  0  0  0  0  0
  136.7837  152.6380  145.0886 C   0  0  0  0  0  0  0  0  0  0  0  0
  138.5889  149.8386  142.4057 C   0  0  0  0  0  0  0  0  0  0  0  0
  137.0939  153.8636  145.1629 C   0  0  0  0  0  0  0  0  0  0  0  0
  139.0958  149.0319  141.4957 C   0  0  0  0  0  0  0  0  0  0  0  0
  135.6368  152.1771  145.3913 C   0  0  0  0  0  0  0  0  0  0  0  0
  135.3317  150.8634  145.3879 C   0  0  0  0  0  0  0  0  0  0  0  0
  137.4908  149.6126  143.3782 C   0  0  0  0  0  0  0  0  0  0  0  0
  134.2642  150.3728  146.2802 C   0  0  0  0  0  0  0  0  0  0  0  0
  136.4209  149.9775  145.2018 N   0  0  0  0  0  0  0  0  0  0  0  0
  1  2  1  0
  2  3  2  0
  3  4  1  0
  3  5  1  0
  1  6  2  0
  5  7  1  0
  6  8  1  0
  5  9  2  0
  9 10  1  0
  4 11  2  0
  6 11  1  0
 10 12  1  0
  4 13  1  0
 10 13  1  0
M  END
$$$$

     RDKit          3D

 13 14  0  0  0  0  0  0  0  0999 V2000
  140.3038  150.2150  139.4785 Cl  0  0  0  0  0  0  0  0  0  0  0  0
  138.6786  150.1874  140.5317 C   0  0  0  0  0  0  0  0  0  0  0  0
  137.6385  149.3840  140.0946 C   0  0  0  0  0  0  0  0  0  0  0  0
  136.4399  149.4579  140.8211 C   0  0  0  0  0  0  0  0  0  0  0  0
  138.9830  150.6971  141.6805 C   0  0  0  0  0  0  0  0  0  0  0  0
  138.2331  150.9043  142.4752 C   0  0  0  0  0  0  0  0  0  0  0  0
  138.4970  151.5655  143.8665 C   0  0  0  0  0  0  0  0  0  0  0  0
  136.7758  150.4940  142.6016 C   0  0  0  0  0  0  0  0  0  0  0  0
  136.1550  151.1059  143.8266 C   0  0  0  0  0  0  0  0  0  0  0  0
  135.3840  148.8645  139.8139 C   0  0  0  0  0  0  0  0  0  0  0  0
  137.0240  151.5020  144.6828 C   0  0  0  0  0  0  0  0  0  0  0  0
  136.0400  150.1325  141.8432 C   0  0  0  0  0  0  0  0  0  0  0  0
  137.3033  150.8556  145.8108 O   0  0  0  0  0  0  0  0  0  0  0  0
  1  2  1  0
  2  3  2  0
  3  4  1  0
  2  5  1  0
  5  6  2  0
  6  7  1  0
  6  8  1  0
  8  9  1  0
  4 10  1  0
  7 11  1  0
  9 11  1  0
  4 12  1  0
  8 12  1  0
 11 13  1  0
M  END
$$$$

     RDKit          3D

 13 14  0  0  0  0  0  0  0  0999 V2000
  138.7090  151.1480  142.6270 C   0  0  0  0  0  0  0  0  0  0  0  0
  138.5232  151.9372  143.5110 C   0  0  0  0  0  0  0  0  0  0  0  0
  137.3801  151.6562  144.3958 C   0  0  0  0  0  0  0  0  0  0  0  0
  139.7036  151.1026  141.6212 C   0  0  0  0  0  0  0  0  0  0  0  0
  136.7239  150.4190  144.0179 C   0  0  0  0  0  0  0  0  0  0  0  0
  137.9015  150.0241  142.3223 C   0  0  0  0  0  0  0  0  0  0  0  0
  138.2278  149.2932  141.1442 C   0  0  0  0  0  0  0  0  0  0  0  0
  137.1510  152.6488  145.4050 C   0  0  0  0  0  0  0  0  0  0  0  0
  135.9440  153.1593  145.3482 C   0  0  0  0  0  0  0  0  0  0  0  0
  136.9009  149.8068  143.1747 N   0  0  0  0  0  0  0  0  0  0  0  0
  139.5905  150.3805  140.5357 C   0  0  0  0  0  0  0  0  0  0  0  0
  138.9900  149.5289  140.2982 C   0  0  0  0  0  0  0  0  0  0  0  0
  140.8850  151.0384  139.2085 Cl  0  0  0  0  0  0  0  0  0  0  0  0
  1  2  1  0
  2  3  2  0
  1  4  1  0
  3  5  1  0
  1  6  2  0
  6  7  1  0
  3  8  1  0
  8  9  1  0
  5 10  2  0
  6 10  1  0
  4 11  2  0
  7 12  2  0
 11 12  1  0
 11 13  1  0
M  END
$$$$

     RDKit          3D

 13 13  0  0  0  0  0  0  0  0999 V2000
  139.5546  150.5070  140.4440 C   0  0  0  0  0  0  0  0  0  0  0  0
  139.2168  150.0150  139.3722 C   0  0  0  0  0  0  0  0  0  0  0  0
  138.8581  150.3073  141.5852 C   0  0  0  0  0  0  0  0  0  0  0  0
  139.2290  150.3516  142.8905 C   0  0  0  0  0  0  0  0  0  0  0  0
  138.3519  151.0008  143.9747 C   0  0  0  0  0  0  0  0  0  0  0  0
  137.3998  151.4263  143.6194 C   0  0  0  0  0  0  0  0  0  0  0  0
  136.5329  152.2351  144.5998 C   0  0  0  0  0  0  0  0  0  0  0  0
  136.9466  151.2605  142.2215 C   0  0  0  0  0  0  0  0  0  0  0  0
  135.3507  151.6956  145.0820 C   0  0  0  0  0  0  0  0  0  0  0  0
  140.0126  149.8366  138.1758 C   0  0  0  0  0  0  0  0  0  0  0  0
  137.5543  150.6586  141.3561 C   0  0  0  0  0  0  0  0  0  0  0  0
  135.0146  150.3631  144.9782 C   0  0  0  0  0  0  0  0  0  0  0  0
  134.8971  152.7486  146.1147 C   0  0  0  0  0  0  0  0  0  0  0  0
  1  2  2  3
  1  3  1  0
  3  4  1  0
  4  5  2  0
  5  6  1  0
  6  7  1  0
  6  8  2  0
  7  9  2  3
  2 10  1  0
  3 11  2  0
  8 11  1  0
  9 12  1  0
  9 13  1  0
M  END
$$$$

     RDKit          3D

 13 14  0  0  0  0  0  0  0  0999 V2000
  140.3038  150.2150  139.4785 Cl  0  0  0  0  0  0  0  0  0  0  0  0
  138.6786  150.1874  140.5317 C   0  0  0  0  0  0  0  0  0  0  0  0
  137.6385  149.3840  140.0946 C   0  0  0  0  0  0  0  0  0  0  0  0
  139.2404  150.7160  141.5759 C   0  0  0  0  0  0  0  0  0  0  0  0
  138.3592  151.0512  142.3776 C   0  0  0  0  0  0  0  0  0  0  0  0
  136.5132  149.6320  140.9989 C   0  0  0  0  0  0  0  0  0  0  0  0
  138.6485  151.8145  143.7097 C   0  0  0  0  0  0  0  0  0  0  0  0
  135.2230  149.4126  140.8574 C   0  0  0  0  0  0  0  0  0  0  0  0
  137.6252  151.8925  144.5437 C   0  0  0  0  0  0  0  0  0  0  0  0
  136.4813  151.4430  144.2818 C   0  0  0  0  0  0  0  0  0  0  0  0
  136.8924  150.4758  142.1981 C   0  0  0  0  0  0  0  0  0  0  0  0
  135.9771  150.7752  143.1843 C   0  0  0  0  0  0  0  0  0  0  0  0
  135.1050  151.6249  145.4546 Cl  0  0  0  0  0  0  0  0  0  0  0  0
  1  2  1  0
  2  3  1  0
  2  4  2  0
  4  5  1  0
  3  6  2  0
  5  7  1  0
  6  8  1  0
  7  9  2  0
  9 10  1  0
  5 11  2  0
  6 11  1  0
 10 12  2  0
 11 12  1  0
 10 13  1  0
M  END
$$$$

     RDKit          3D

 13 14  0  0  0  0  0  0  0  0999 V2000
  139.3423  149.9928  140.5892 C   0  0  0  0  0  0  0  0  0  0  0  0
  138.9530  149.9232  139.3662 C   0  0  0  0  0  0  0  0  0  0  0  0
  138.6126  150.1100  141.6424 C   0  0  0  0  0  0  0  0  0  0  0  0
  137.1875  149.8648  141.8313 C   0  0  0  0  0  0  0  0  0  0  0  0
  136.5143  149.7627  140.5785 C   0  0  0  0  0  0  0  0  0  0  0  0
  139.1422  150.4925  143.0862 C   0  0  0  0  0  0  0  0  0  0  0  0
  138.2697  151.1411  143.8764 C   0  0  0  0  0  0  0  0  0  0  0  0
  136.9541  151.0016  143.8143 C   0  0  0  0  0  0  0  0  0  0  0  0
  136.3056  150.3357  142.7710 C   0  0  0  0  0  0  0  0  0  0  0  0
  137.3642  149.5965  139.3069 C   0  0  0  0  0  0  0  0  0  0  0  0
  136.4290  151.6403  144.9586 C   0  0  0  0  0  0  0  0  0  0  0  0
  135.1962  151.5951  145.3240 C   0  0  0  0  0  0  0  0  0  0  0  0
  134.5489  152.6005  146.2826 C   0  0  0  0  0  0  0  0  0  0  0  0
  1  2  2  0
  1  3  1  0
  3  4  1  0
  4  5  2  0
  3  6  1  0
  6  7  2  0
  7  8  1  0
  4  9  1  0
  8  9  1  0
  2 10  1  0
  5 10  1  0
  8 11  2  3
 11 12  1  0
 12 13  2  0
M  END
$$$$

     RDKit          3D

 13 14  0  0  0  0  0  0  0  0999 V2000
  138.7090  151.1480  142.6270 C   0  0  0  0  0  0  0  0  0  0  0  0
  138.5232  151.9372  143.5110 C   0  0  0  0  0  0  0  0  0  0  0  0
  137.3801  151.6562  144.3958 C   0  0  0  0  0  0  0  0  0  0  0  0
  139.7036  151.1026  141.6212 C   0  0  0  0  0  0  0  0  0  0  0  0
  136.7239  150.4190  144.0179 C   0  0  0  0  0  0  0  0  0  0  0  0
  137.9015  150.0241  142.3223 C   0  0  0  0  0  0  0  0  0  0  0  0
  138.2278  149.2932  141.1442 C   0  0  0  0  0  0  0  0  0  0  0  0
  137.1510  152.6488  145.4050 C   0  0  0  0  0  0  0  0  0  0  0  0
  139.6392  150.4065  140.4602 C   0  0  0  0  0  0  0  0  0  0  0  0
  140.8478  150.8194  139.4962 C   0  0  0  0  0  0  0  0  0  0  0  0
  135.7703  152.6420  145.8746 C   0  0  0  0  0  0  0  0  0  0  0  0
  138.9233  149.4234  140.2293 C   0  0  0  0  0  0  0  0  0  0  0  0
  136.9552  149.7801  142.9037 N   0  0  0  0  0  0  0  0  0  0  0  0
  1  2  1  0
  2  3  2  0
  1  4  1  0
  3  5  1  0
  1  6  2  0
  6  7  1  0
  3  8  1  0
  4  9  2  0
  9 10  1  0
  8 11  1  0
  7 12  2  0
  9 12  1  0
  5 13  2  0
  6 13  1  0
M  END
$$$$

     RDKit          3D

 13 14  0  0  0  0  0  0  0  0999 V2000
  140.3038  150.2150  139.4785 Cl  0  0  0  0  0  0  0  0  0  0  0  0
  138.6786  150.1874  140.5317 C   0  0  0  0  0  0  0  0  0  0  0  0
  137.6385  149.3840  140.0946 C   0  0  0  0  0  0  0  0  0  0  0  0
  139.2404  150.7160  141.5759 C   0  0  0  0  0  0  0  0  0  0  0  0
  138.2225  150.6931  142.6929 C   0  0  0  0  0  0  0  0  0  0  0  0
  136.9613  150.0836  142.4469 C   0  0  0  0  0  0  0  0  0  0  0  0
  135.9487  150.2526  143.4885 C   0  0  0  0  0  0  0  0  0  0  0  0
  136.3619  151.1927  144.4166 C   0  0  0  0  0  0  0  0  0  0  0  0
  135.7653  151.7694  145.4030 C   0  0  0  0  0  0  0  0  0  0  0  0
  136.2760  152.9011  146.1753 C   0  0  0  0  0  0  0  0  0  0  0  0
  136.5133  149.5747  141.0636 C   0  0  0  0  0  0  0  0  0  0  0  0
  138.6806  151.2198  143.9874 C   0  0  0  0  0  0  0  0  0  0  0  0
  137.4708  151.4518  144.6160 N   0  0  0  0  0  0  0  0  0  0  0  0
  1  2  1  0
  2  3  1  0
  2  4  2  0
  4  5  1  0
  5  6  2  0
  6  7  1  0
  7  8  1  0
  8  9  2  3
  9 10  1  0
  3 11  2  0
  6 11  1  0
  5 12  1  0
  8 13  1  0
 12 13  2  0
M  END
$$$$

     RDKit          3D

 13 14  0  0  0  0  0  0  0  0999 V2000
  139.5546  150.5070  140.4440 C   0  0  0  0  0  0  0  0  0  0  0  0
  139.2168  150.0150  139.3722 C   0  0  0  0  0  0  0  0  0  0  0  0
  138.8581  150.3073  141.5852 C   0  0  0  0  0  0  0  0  0  0  0  0
  139.2290  150.3516  142.8905 C   0  0  0  0  0  0  0  0  0  0  0  0
  138.3519  151.0008  143.9747 C   0  0  0  0  0  0  0  0  0  0  0  0
  137.3998  151.4263  143.6194 C   0  0  0  0  0  0  0  0  0  0  0  0
  136.5329  152.2351  144.5998 C   0  0  0  0  0  0  0  0  0  0  0  0
  136.9653  151.2809  142.2541 C   0  0  0  0  0  0  0  0  0  0  0  0
  137.8282  149.6218  139.1911 C   0  0  0  0  0  0  0  0  0  0  0  0
  136.9829  153.3560  145.1657 O   0  0  0  0  0  0  0  0  0  0  0  0
  137.6777  150.5950  141.4525 C   0  0  0  0  0  0  0  0  0  0  0  0
  135.4597  151.8167  144.9937 O   0  0  0  0  0  0  0  0  0  0  0  0
  136.9499  150.0366  140.2331 C   0  0  0  0  0  0  0  0  0  0  0  0
  1  2  2  0
  1  3  1  0
  3  4  1  0
  4  5  2  0
  5  6  1  0
  6  7  1  0
  6  8  2  0
  2  9  1  0
  7 10  1  0
  3 11  2  0
  8 11  1  0
  7 12  2  0
  9 13  2  0
 11 13  1  0
M  END
$$$$

     RDKit          3D

 13 14  0  0  0  0  0  0  0  0999 V2000
  138.9705  151.3131  142.5679 C   0  0  0  0  0  0  0  0  0  0  0  0
  138.6042  152.0888  143.2654 C   0  0  0  0  0  0  0  0  0  0  0  0
  137.4887  151.7640  144.1910 C   0  0  0  0  0  0  0  0  0  0  0  0
  137.1673  150.4135  144.2710 C   0  0  0  0  0  0  0  0  0  0  0  0
  136.7837  152.6380  145.0886 C   0  0  0  0  0  0  0  0  0  0  0  0
  138.5889  149.8386  142.4057 C   0  0  0  0  0  0  0  0  0  0  0  0
  137.0939  153.8636  145.1629 C   0  0  0  0  0  0  0  0  0  0  0  0
  139.0958  149.0319  141.4957 C   0  0  0  0  0  0  0  0  0  0  0  0
  135.6368  152.1771  145.3913 C   0  0  0  0  0  0  0  0  0  0  0  0
  135.3317  150.8634  145.3879 C   0  0  0  0  0  0  0  0  0  0  0  0
  137.4908  149.6126  143.3782 C   0  0  0  0  0  0  0  0  0  0  0  0
  136.0630  149.9989  145.0119 C   0  0  0  0  0  0  0  0  0  0  0  0
  134.8009  153.1466  145.9432 C   0  0  0  0  0  0  0  0  0  0  0  0
  1  2  1  0
  2  3  2  0
  3  4  1  0
  3  5  1  0
  1  6  2  0
  5  7  1  0
  6  8  1  0
  5  9  2  0
  9 10  1  0
  4 11  1  0
  6 11  1  0
  4 12  1  0
 10 12  1  0
  9 13  1  0
M  END
$$$$

     RDKit          3D

 13 14  0  0  0  0  0  0  0  0999 V2000
  138.9705  151.3131  142.5679 C   0  0  0  0  0  0  0  0  0  0  0  0
  138.6042  152.0888  143.2654 C   0  0  0  0  0  0  0  0  0  0  0  0
  137.4887  151.7640  144.1910 C   0  0  0  0  0  0  0  0  0  0  0  0
  139.9944  151.3872  141.4253 C   0  0  0  0  0  0  0  0  0  0  0  0
  137.1404  150.3706  144.0333 C   0  0  0  0  0  0  0  0  0  0  0  0
  139.6217  150.7332  140.2348 C   0  0  0  0  0  0  0  0  0  0  0  0
  138.5564  149.8224  140.4267 C   0  0  0  0  0  0  0  0  0  0  0  0
  138.3482  149.9743  142.1178 C   0  0  0  0  0  0  0  0  0  0  0  0
  137.4816  149.4481  143.0490 C   0  0  0  0  0  0  0  0  0  0  0  0
  137.0058  152.5453  145.2259 C   0  0  0  0  0  0  0  0  0  0  0  0
  135.7147  152.3163  145.7427 C   0  0  0  0  0  0  0  0  0  0  0  0
  135.1865  151.2261  145.7863 C   0  0  0  0  0  0  0  0  0  0  0  0
  134.8423  153.3650  146.0837 C   0  0  0  0  0  0  0  0  0  0  0  0
  1  2  1  0
  2  3  2  0
  1  4  1  0
  3  5  1  0
  4  6  2  0
  6  7  1  0
  1  8  2  0
  7  8  1  0
  5  9  2  0
  8  9  1  0
  3 10  1  0
 10 11  1  0
 11 12  2  0
 11 13  1  0
M  END
$$$$

     RDKit          3D

 13 14  0  0  0  0  0  0  0  0999 V2000
  139.5546  150.5070  140.4440 C   0  0  0  0  0  0  0  0  0  0  0  0
  139.2168  150.0150  139.3722 C   0  0  0  0  0  0  0  0  0  0  0  0
  138.8581  150.3073  141.5852 C   0  0  0  0  0  0  0  0  0  0  0  0
  137.9799  149.2986  139.2370 C   0  0  0  0  0  0  0  0  0  0  0  0
  137.5554  148.8167  137.9571 C   0  0  0  0  0  0  0  0  0  0  0  0
  139.2072  150.9124  142.9002 C   0  0  0  0  0  0  0  0  0  0  0  0
  138.1324  151.1490  143.9185 C   0  0  0  0  0  0  0  0  0  0  0  0
  137.2046  149.2734  140.4656 C   0  0  0  0  0  0  0  0  0  0  0  0
  136.9162  150.5386  143.4716 C   0  0  0  0  0  0  0  0  0  0  0  0
  137.5163  149.7691  141.5577 C   0  0  0  0  0  0  0  0  0  0  0  0
  135.9115  150.8530  144.5998 C   0  0  0  0  0  0  0  0  0  0  0  0
  136.6501  149.8730  142.3963 N   0  0  0  0  0  0  0  0  0  0  0  0
  135.8424  150.5384  145.7200 C   0  0  0  0  0  0  0  0  0  0  0  0
  1  2  2  0
  1  3  1  0
  2  4  1  0
  4  5  1  0
  3  6  1  0
  6  7  2  0
  4  8  2  0
  7  9  1  0
  3 10  2  0
  8 10  1  0
  9 11  1  0
  9 12  2  0
 10 12  1  0
 11 13  2  0
M  END
$$$$

     RDKit          3D

 13 14  0  0  0  0  0  0  0  0999 V2000
  140.3038  150.2150  139.4785 Cl  0  0  0  0  0  0  0  0  0  0  0  0
  138.6786  150.1874  140.5317 C   0  0  0  0  0  0  0  0  0  0  0  0
  137.6385  149.3840  140.0946 C   0  0  0  0  0  0  0  0  0  0  0  0
  138.8663  150.7187  141.4505 C   0  0  0  0  0  0  0  0  0  0  0  0
  137.8215  150.8029  142.5157 C   0  0  0  0  0  0  0  0  0  0  0  0
  136.6690  150.0407  142.1961 C   0  0  0  0  0  0  0  0  0  0  0  0
  137.4948  148.7965  138.8646 C   0  0  0  0  0  0  0  0  0  0  0  0
  138.1406  151.5013  143.8293 C   0  0  0  0  0  0  0  0  0  0  0  0
  135.6019  150.3310  143.2316 C   0  0  0  0  0  0  0  0  0  0  0  0
  136.4670  149.5684  141.0223 C   0  0  0  0  0  0  0  0  0  0  0  0
  136.0081  151.1975  144.3703 C   0  0  0  0  0  0  0  0  0  0  0  0
  134.8782  151.4527  145.3885 C   0  0  0  0  0  0  0  0  0  0  0  0
  137.1621  151.6331  144.7603 C   0  0  0  0  0  0  0  0  0  0  0  0
  1  2  1  0
  2  3  2  0
  2  4  1  0
  4  5  2  0
  5  6  1  0
  3  7  1  0
  5  8  1  0
  6  9  1  0
  3 10  1  0
  6 10  2  0
  9 11  1  0
 11 12  1  0
  8 13  1  0
 11 13  2  0
M  END
$$$$

     RDKit          3D

 13 14  0  0  0  0  0  0  0  0999 V2000
  139.5546  150.5070  140.4440 C   0  0  0  0  0  0  0  0  0  0  0  0
  139.2168  150.0150  139.3722 C   0  0  0  0  0  0  0  0  0  0  0  0
  138.8581  150.3073  141.5852 C   0  0  0  0  0  0  0  0  0  0  0  0
  139.2290  150.3516  142.8905 C   0  0  0  0  0  0  0  0  0  0  0  0
  138.3519  151.0008  143.9747 C   0  0  0  0  0  0  0  0  0  0  0  0
  137.3998  151.4263  143.6194 C   0  0  0  0  0  0  0  0  0  0  0  0
  136.5329  152.2351  144.5998 C   0  0  0  0  0  0  0  0  0  0  0  0
  137.8483  149.5152  139.3347 C   0  0  0  0  0  0  0  0  0  0  0  0
  135.3557  151.6310  145.1329 C   0  0  0  0  0  0  0  0  0  0  0  0
  137.0850  149.5672  140.4675 C   0  0  0  0  0  0  0  0  0  0  0  0
  137.5543  150.0653  141.6235 C   0  0  0  0  0  0  0  0  0  0  0  0
  136.6438  150.8651  142.5587 N   0  0  0  0  0  0  0  0  0  0  0  0
  137.0085  153.1154  145.1873 O   0  0  0  0  0  0  0  0  0  0  0  0
  1  2  2  0
  1  3  1  0
  3  4  1  0
  4  5  2  0
  5  6  1  0
  6  7  1  0
  2  8  1  0
  7  9  1  0
  8 10  2  0
  3 11  2  0
 10 11  1  0
  6 12  2  0
 11 12  1  0
  7 13  2  0
M  END
$$$$

     RDKit          3D

 13 14  0  0  0  0  0  0  0  0999 V2000
  140.3038  150.2150  139.4785 Cl  0  0  0  0  0  0  0  0  0  0  0  0
  138.6786  150.1874  140.5317 C   0  0  0  0  0  0  0  0  0  0  0  0
  137.6385  149.3840  140.0946 C   0  0  0  0  0  0  0  0  0  0  0  0
  138.7506  150.9507  141.6713 C   0  0  0  0  0  0  0  0  0  0  0  0
  136.5527  149.6212  140.7745 C   0  0  0  0  0  0  0  0  0  0  0  0
  135.2919  149.0327  140.1418 C   0  0  0  0  0  0  0  0  0  0  0  0
  136.5287  150.4782  141.8364 C   0  0  0  0  0  0  0  0  0  0  0  0
  135.3193  150.6924  142.7156 C   0  0  0  0  0  0  0  0  0  0  0  0
  135.7668  151.4926  143.9256 C   0  0  0  0  0  0  0  0  0  0  0  0
  137.7598  151.1044  142.3481 C   0  0  0  0  0  0  0  0  0  0  0  0
  137.6723  151.9107  143.6390 S   0  0  0  0  0  0  0  0  0  0  0  0
  136.5629  151.9842  144.4128 C   0  0  0  0  0  0  0  0  0  0  0  0
  136.4659  152.6267  145.6207 N   0  0  0  0  0  0  0  0  0  0  0  0
  1  2  1  0
  2  3  2  0
  2  4  1  0
  3  5  1  0
  5  6  1  0
  5  7  2  0
  7  8  1  0
  8  9  2  0
  4 10  2  0
  7 10  1  0
 10 11  1  0
  9 12  1  0
 11 12  2  0
 12 13  1  0
M  END
$$$$

     RDKit          3D

 13 14  0  0  0  0  0  0  0  0999 V2000
  140.3038  150.2150  139.4785 Cl  0  0  0  0  0  0  0  0  0  0  0  0
  138.6786  150.1874  140.5317 C   0  0  0  0  0  0  0  0  0  0  0  0
  137.6385  149.3840  140.0946 C   0  0  0  0  0  0  0  0  0  0  0  0
  137.5435  148.9630  138.7458 C   0  0  0  0  0  0  0  0  0  0  0  0
  138.4874  150.4382  141.7160 C   0  0  0  0  0  0  0  0  0  0  0  0
  137.4116  150.4246  142.5549 C   0  0  0  0  0  0  0  0  0  0  0  0
  136.4818  149.5444  140.7982 C   0  0  0  0  0  0  0  0  0  0  0  0
  137.4234  150.9552  143.9579 C   0  0  0  0  0  0  0  0  0  0  0  0
  136.3846  150.0821  142.0789 C   0  0  0  0  0  0  0  0  0  0  0  0
  138.4586  150.9238  144.8031 C   0  0  0  0  0  0  0  0  0  0  0  0
  136.5621  151.8326  144.5094 C   0  0  0  0  0  0  0  0  0  0  0  0
  136.9811  152.6508  145.6624 C   0  0  0  0  0  0  0  0  0  0  0  0
  138.4951  151.7698  145.8901 C   0  0  0  0  0  0  0  0  0  0  0  0
  1  2  1  0
  2  3  2  0
  3  4  1  0
  2  5  1  0
  5  6  2  0
  3  7  1  0
  6  8  1  0
  6  9  1  0
  7  9  2  0
  8 10  2  0
  8 11  1  0
 11 12  1  0
 10 13  1  0
 12 13  2  0
M  END
$$$$

     RDKit          3D

 13 14  0  0  0  0  0  0  0  0999 V2000
  140.3038  150.2150  139.4785 Cl  0  0  0  0  0  0  0  0  0  0  0  0
  138.6786  150.1874  140.5317 C   0  0  0  0  0  0  0  0  0  0  0  0
  137.6385  149.3840  140.0946 C   0  0  0  0  0  0  0  0  0  0  0  0
  139.0347  150.8837  141.6176 C   0  0  0  0  0  0  0  0  0  0  0  0
  136.4870  149.4739  141.0114 C   0  0  0  0  0  0  0  0  0  0  0  0
  135.2468  148.9969  140.4739 C   0  0  0  0  0  0  0  0  0  0  0  0
  136.7778  150.2789  142.0941 C   0  0  0  0  0  0  0  0  0  0  0  0
  135.6337  150.4006  143.1290 C   0  0  0  0  0  0  0  0  0  0  0  0
  136.1409  151.1664  144.3898 C   0  0  0  0  0  0  0  0  0  0  0  0
  137.3706  150.7740  144.7332 C   0  0  0  0  0  0  0  0  0  0  0  0
  135.4370  152.1466  145.0649 C   0  0  0  0  0  0  0  0  0  0  0  0
  138.5121  150.9494  143.7889 C   0  0  0  0  0  0  0  0  0  0  0  0
  137.9417  150.7153  142.5004 C   0  0  0  0  0  0  0  0  0  0  0  0
  1  2  1  0
  2  3  2  0
  2  4  1  0
  3  5  1  0
  5  6  1  0
  5  7  2  0
  7  8  1  0
  8  9  1  0
  9 10  2  0
  9 11  1  0
 10 12  1  0
  4 13  1  0
  7 13  1  0
 12 13  1  0
M  END
$$$$

     RDKit          3D

 13 14  0  0  0  0  0  0  0  0999 V2000
  140.3038  150.2150  139.4785 Cl  0  0  0  0  0  0  0  0  0  0  0  0
  138.6786  150.1874  140.5317 C   0  0  0  0  0  0  0  0  0  0  0  0
  137.6385  149.3840  140.0946 C   0  0  0  0  0  0  0  0  0  0  0  0
  138.8663  150.7187  141.4505 C   0  0  0  0  0  0  0  0  0  0  0  0
  136.5679  149.5915  140.7717 C   0  0  0  0  0  0  0  0  0  0  0  0
  135.2802  149.0558  140.2099 C   0  0  0  0  0  0  0  0  0  0  0  0
  136.6063  150.4574  141.8322 C   0  0  0  0  0  0  0  0  0  0  0  0
  135.4286  150.7337  142.7297 C   0  0  0  0  0  0  0  0  0  0  0  0
  137.7725  151.0495  142.3401 C   0  0  0  0  0  0  0  0  0  0  0  0
  137.9814  151.8089  143.5885 C   0  0  0  0  0  0  0  0  0  0  0  0
  135.6438  151.3324  143.9797 C   0  0  0  0  0  0  0  0  0  0  0  0
  136.6600  151.8211  144.3949 C   0  0  0  0  0  0  0  0  0  0  0  0
  136.5992  152.5776  145.8999 C   0  0  0  0  0  0  0  0  0  0  0  0
  1  2  1  0
  2  3  2  0
  2  4  1  0
  3  5  1  0
  5  6  1  0
  5  7  2  0
  7  8  1  0
  4  9  2  0
  7  9  1  0
  9 10  1  0
  8 11  2  0
 10 12  2  0
 11 12  1  0
 12 13  1  0
M  END
$$$$

     RDKit          3D

 13 14  0  0  0  0  0  0  0  0999 V2000
  140.3038  150.2150  139.4785 Cl  0  0  0  0  0  0  0  0  0  0  0  0
  138.6786  150.1874  140.5317 C   0  0  0  0  0  0  0  0  0  0  0  0
  137.6385  149.3840  140.0946 C   0  0  0  0  0  0  0  0  0  0  0  0
  136.4399  149.4579  140.8211 C   0  0  0  0  0  0  0  0  0  0  0  0
  139.1335  150.7559  141.5073 C   0  0  0  0  0  0  0  0  0  0  0  0
  138.1148  150.7992  142.6522 C   0  0  0  0  0  0  0  0  0  0  0  0
  135.1531  149.2335  140.4493 C   0  0  0  0  0  0  0  0  0  0  0  0
  138.4182  151.3986  143.9384 C   0  0  0  0  0  0  0  0  0  0  0  0
  136.7814  150.4866  142.9788 C   0  0  0  0  0  0  0  0  0  0  0  0
  136.0718  150.1352  142.0099 C   0  0  0  0  0  0  0  0  0  0  0  0
  136.2628  150.6582  144.2363 C   0  0  0  0  0  0  0  0  0  0  0  0
  135.0777  150.5718  144.7135 C   0  0  0  0  0  0  0  0  0  0  0  0
  137.3947  151.1574  144.8667 C   0  0  0  0  0  0  0  0  0  0  0  0
  1  2  1  0
  2  3  2  0
  3  4  1  0
  2  5  1  0
  5  6  2  0
  4  7  1  0
  6  8  1  0
  6  9  1  0
  4 10  1  0
  9 10  1  0
  9 11  2  0
 11 12  1  0
  8 13  1  0
 11 13  1  0
M  END
$$$$

     RDKit          3D

 13 14  0  0  0  0  0  0  0  0999 V2000
  140.3038  150.2150  139.4785 Cl  0  0  0  0  0  0  0  0  0  0  0  0
  138.6786  150.1874  140.5317 C   0  0  0  0  0  0  0  0  0  0  0  0
  137.6385  149.3840  140.0946 C   0  0  0  0  0  0  0  0  0  0  0  0
  138.8663  150.7187  141.4505 C   0  0  0  0  0  0  0  0  0  0  0  0
  137.8215  150.8029  142.5157 C   0  0  0  0  0  0  0  0  0  0  0  0
  136.6690  150.0407  142.1961 C   0  0  0  0  0  0  0  0  0  0  0  0
  137.4948  148.7965  138.8646 C   0  0  0  0  0  0  0  0  0  0  0  0
  138.1406  151.5013  143.8293 C   0  0  0  0  0  0  0  0  0  0  0  0
  135.6019  150.3310  143.2316 C   0  0  0  0  0  0  0  0  0  0  0  0
  136.4670  149.5684  141.0223 C   0  0  0  0  0  0  0  0  0  0  0  0
  136.0081  151.1975  144.3703 C   0  0  0  0  0  0  0  0  0  0  0  0
  134.8782  151.4527  145.3885 C   0  0  0  0  0  0  0  0  0  0  0  0
  137.1698  151.4888  144.5223 N   0  0  0  0  0  0  0  0  0  0  0  0
  1  2  1  0
  2  3  2  0
  2  4  1  0
  4  5  2  0
  5  6  1  0
  3  7  1  0
  5  8  1  0
  6  9  1  0
  3 10  1  0
  6 10  2  0
  9 11  1  0
 11 12  1  0
  8 13  1  0
 11 13  2  0
M  END
$$$$

     RDKit          3D

 14 15  0  0  0  0  0  0  0  0999 V2000
  140.3038  150.2150  139.4785 Cl  0  0  0  0  0  0  0  0  0  0  0  0
  138.6786  150.1874  140.5317 C   0  0  0  0  0  0  0  0  0  0  0  0
  137.6385  149.3840  140.0946 C   0  0  0  0  0  0  0  0  0  0  0  0
  139.0347  150.8837  141.6176 C   0  0  0  0  0  0  0  0  0  0  0  0
  136.4870  149.4739  141.0114 C   0  0  0  0  0  0  0  0  0  0  0  0
  135.2468  148.9969  140.4739 C   0  0  0  0  0  0  0  0  0  0  0  0
  136.7778  150.2789  142.0941 C   0  0  0  0  0  0  0  0  0  0  0  0
  135.6337  150.4006  143.1290 C   0  0  0  0  0  0  0  0  0  0  0  0
  136.1409  151.1664  144.3898 C   0  0  0  0  0  0  0  0  0  0  0  0
  137.3706  150.7740  144.7332 C   0  0  0  0  0  0  0  0  0  0  0  0
  135.4370  152.1466  145.0649 C   0  0  0  0  0  0  0  0  0  0  0  0
  135.7086  152.5371  146.1808 C   0  0  0  0  0  0  0  0  0  0  0  0
  138.5284  151.0298  143.9055 C   0  0  0  0  0  0  0  0  0  0  0  0
  137.9689  150.7409  142.4664 C   0  0  0  0  0  0  0  0  0  0  0  0
  1  2  1  0
  2  3  2  0
  2  4  1  0
  3  5  1  0
  5  6  1  0
  5  7  2  0
  7  8  1  0
  8  9  1  0
  9 10  2  0
  9 11  1  0
 11 12  1  0
 10 13  1  0
  4 14  2  0
  7 14  1  0
 13 14  1  0
M  END
$$$$

     RDKit          3D

 14 15  0  0  0  0  0  0  0  0999 V2000
  139.3423  149.9928  140.5892 C   0  0  0  0  0  0  0  0  0  0  0  0
  138.9530  149.9232  139.3662 C   0  0  0  0  0  0  0  0  0  0  0  0
  138.6126  150.1100  141.6424 C   0  0  0  0  0  0  0  0  0  0  0  0
  137.1875  149.8648  141.8313 C   0  0  0  0  0  0  0  0  0  0  0  0
  136.5143  149.7627  140.5785 C   0  0  0  0  0  0  0  0  0  0  0  0
  139.1422  150.4925  143.0862 C   0  0  0  0  0  0  0  0  0  0  0  0
  138.2697  151.1411  143.8764 C   0  0  0  0  0  0  0  0  0  0  0  0
  136.9541  151.0016  143.8143 C   0  0  0  0  0  0  0  0  0  0  0  0
  136.3226  150.3068  142.8356 C   0  0  0  0  0  0  0  0  0  0  0  0
  136.1157  151.6244  145.0783 C   0  0  0  0  0  0  0  0  0  0  0  0
  139.7152  149.9282  138.1979 C   0  0  0  0  0  0  0  0  0  0  0  0
  135.0275  152.0950  144.9083 C   0  0  0  0  0  0  0  0  0  0  0  0
  135.2061  149.4692  140.4120 C   0  0  0  0  0  0  0  0  0  0  0  0
  137.3598  149.6477  139.3550 C   0  0  0  0  0  0  0  0  0  0  0  0
  1  2  2  0
  1  3  1  0
  3  4  1  0
  4  5  2  0
  3  6  1  0
  6  7  2  0
  7  8  1  0
  4  9  1  0
  8  9  2  0
  8 10  1  0
  2 11  1  0
 10 12  2  0
  5 13  1  0
  2 14  1  0
  5 14  1  0
M  END
$$$$

     RDKit          3D

 14 15  0  0  0  0  0  0  0  0999 V2000
  138.9705  151.3131  142.5679 C   0  0  0  0  0  0  0  0  0  0  0  0
  138.6042  152.0888  143.2654 C   0  0  0  0  0  0  0  0  0  0  0  0
  137.4887  151.7640  144.1910 C   0  0  0  0  0  0  0  0  0  0  0  0
  137.1673  150.4135  144.2710 C   0  0  0  0  0  0  0  0  0  0  0  0
  136.7837  152.6380  145.0886 C   0  0  0  0  0  0  0  0  0  0  0  0
  138.5889  149.8386  142.4057 C   0  0  0  0  0  0  0  0  0  0  0  0
  137.0939  153.8636  145.1629 C   0  0  0  0  0  0  0  0  0  0  0  0
  139.0958  149.0319  141.4957 C   0  0  0  0  0  0  0  0  0  0  0  0
  138.9655  149.3989  140.0909 C   0  0  0  0  0  0  0  0  0  0  0  0
  135.6272  152.1482  145.6705 C   0  0  0  0  0  0  0  0  0  0  0  0
  135.4044  150.8287  145.6572 C   0  0  0  0  0  0  0  0  0  0  0  0
  137.5699  149.5354  143.3308 N   0  0  0  0  0  0  0  0  0  0  0  0
  139.4181  150.3514  139.5313 C   0  0  0  0  0  0  0  0  0  0  0  0
  136.2062  149.8318  145.1013 C   0  0  0  0  0  0  0  0  0  0  0  0
  1  2  1  0
  2  3  2  0
  3  4  1  0
  3  5  1  0
  1  6  2  0
  5  7  1  0
  6  8  1  0
  8  9  1  0
  5 10  2  0
 10 11  1  0
  4 12  1  0
  6 12  1  0
  9 13  2  0
  4 14  2  0
 11 14  1  0
M  END
$$$$

     RDKit          3D

 14 15  0  0  0  0  0  0  0  0999 V2000
  139.3423  149.9928  140.5892 C   0  0  0  0  0  0  0  0  0  0  0  0
  138.9530  149.9232  139.3662 C   0  0  0  0  0  0  0  0  0  0  0  0
  138.6126  150.1100  141.6424 C   0  0  0  0  0  0  0  0  0  0  0  0
  137.1875  149.8648  141.8313 C   0  0  0  0  0  0  0  0  0  0  0  0
  136.5143  149.7627  140.5785 C   0  0  0  0  0  0  0  0  0  0  0  0
  139.1751  150.3995  143.1329 C   0  0  0  0  0  0  0  0  0  0  0  0
  138.2221  150.9725  144.0846 C   0  0  0  0  0  0  0  0  0  0  0  0
  136.9301  150.9606  143.8481 C   0  0  0  0  0  0  0  0  0  0  0  0
  139.8133  149.9572  138.2292 C   0  0  0  0  0  0  0  0  0  0  0  0
  136.9624  149.6545  139.2592 C   0  0  0  0  0  0  0  0  0  0  0  0
  138.0346  149.7781  138.7022 C   0  0  0  0  0  0  0  0  0  0  0  0
  136.3037  150.4691  142.9677 C   0  0  0  0  0  0  0  0  0  0  0  0
  136.1159  151.6302  145.1660 C   0  0  0  0  0  0  0  0  0  0  0  0
  134.8893  151.6653  145.1385 C   0  0  0  0  0  0  0  0  0  0  0  0
  1  2  2  0
  1  3  1  0
  3  4  1  0
  4  5  2  0
  3  6  1  0
  6  7  2  0
  7  8  1  0
  2  9  1  0
  5 10  1  0
  2 11  1  0
 10 11  2  0
  4 12  1  0
  8 12  2  0
  8 13  1  0
 13 14  2  0
M  END
$$$$

     RDKit          3D

 14 15  0  0  0  0  0  0  0  0999 V2000
  139.3423  149.9928  140.5892 C   0  0  0  0  0  0  0  0  0  0  0  0
  138.9530  149.9232  139.3662 C   0  0  0  0  0  0  0  0  0  0  0  0
  138.6126  150.1100  141.6424 C   0  0  0  0  0  0  0  0  0  0  0  0
  137.1875  149.8648  141.8313 C   0  0  0  0  0  0  0  0  0  0  0  0
  136.5143  149.7627  140.5785 C   0  0  0  0  0  0  0  0  0  0  0  0
  139.1751  150.3995  143.1329 C   0  0  0  0  0  0  0  0  0  0  0  0
  138.2221  150.9725  144.0846 C   0  0  0  0  0  0  0  0  0  0  0  0
  136.9301  150.9606  143.8481 C   0  0  0  0  0  0  0  0  0  0  0  0
  136.1638  151.4606  145.0548 C   0  0  0  0  0  0  0  0  0  0  0  0
  136.5126  151.4248  146.3426 C   0  0  0  0  0  0  0  0  0  0  0  0
  136.3963  149.9827  142.9278 C   0  0  0  0  0  0  0  0  0  0  0  0
  139.7823  149.9247  138.2203 C   0  0  0  0  0  0  0  0  0  0  0  0
  135.3372  152.5431  145.0829 C   0  0  0  0  0  0  0  0  0  0  0  0
  137.4392  149.7229  139.3318 C   0  0  0  0  0  0  0  0  0  0  0  0
  1  2  2  0
  1  3  1  0
  3  4  1  0
  4  5  2  0
  3  6  1  0
  6  7  2  0
  7  8  1  0
  8  9  1  0
  9 10  1  0
  4 11  1  0
  8 11  1  0
  2 12  1  0
  9 13  1  0
  2 14  1  0
  5 14  1  0
M  END
$$$$

     RDKit          3D

 14 15  0  0  0  0  0  0  0  0999 V2000
  139.5546  150.5070  140.4440 C   0  0  0  0  0  0  0  0  0  0  0  0
  139.2168  150.0150  139.3722 C   0  0  0  0  0  0  0  0  0  0  0  0
  138.8581  150.3073  141.5852 C   0  0  0  0  0  0  0  0  0  0  0  0
  139.2290  150.3516  142.8905 C   0  0  0  0  0  0  0  0  0  0  0  0
  138.3519  151.0008  143.9747 C   0  0  0  0  0  0  0  0  0  0  0  0
  137.3998  151.4263  143.6194 C   0  0  0  0  0  0  0  0  0  0  0  0
  137.8664  149.5592  139.2622 C   0  0  0  0  0  0  0  0  0  0  0  0
  137.3746  149.0152  138.0520 C   0  0  0  0  0  0  0  0  0  0  0  0
  136.7416  151.2582  142.3215 C   0  0  0  0  0  0  0  0  0  0  0  0
  137.4186  150.5247  141.3998 C   0  0  0  0  0  0  0  0  0  0  0  0
  136.5456  152.4545  144.7741 C   0  0  0  0  0  0  0  0  0  0  0  0
  136.9728  149.9152  140.3229 C   0  0  0  0  0  0  0  0  0  0  0  0
  137.0873  153.5782  145.0693 C   0  0  0  0  0  0  0  0  0  0  0  0
  135.4039  151.8270  145.1165 C   0  0  0  0  0  0  0  0  0  0  0  0
  1  2  2  0
  1  3  1  0
  3  4  1  0
  4  5  2  0
  5  6  1  0
  2  7  1  0
  7  8  1  0
  6  9  2  0
  3 10  2  0
  9 10  1  0
  6 11  1  0
  7 12  2  0
 10 12  1  0
 11 13  2  0
 11 14  1  0
M  END
$$$$

     RDKit          3D

 14 15  0  0  0  0  0  0  0  0999 V2000
  139.5546  150.5070  140.4440 C   0  0  0  0  0  0  0  0  0  0  0  0
  139.2168  150.0150  139.3722 C   0  0  0  0  0  0  0  0  0  0  0  0
  138.8581  150.3073  141.5852 C   0  0  0  0  0  0  0  0  0  0  0  0
  139.2290  150.3516  142.8905 C   0  0  0  0  0  0  0  0  0  0  0  0
  138.3519  151.0008  143.9747 C   0  0  0  0  0  0  0  0  0  0  0  0
  137.3998  151.4263  143.6194 C   0  0  0  0  0  0  0  0  0  0  0  0
  136.5329  152.2351  144.5998 C   0  0  0  0  0  0  0  0  0  0  0  0
  137.8483  149.5152  139.3347 C   0  0  0  0  0  0  0  0  0  0  0  0
  137.0061  151.1934  142.2679 C   0  0  0  0  0  0  0  0  0  0  0  0
  137.2884  149.0249  138.2611 C   0  0  0  0  0  0  0  0  0  0  0  0
  137.1232  149.7392  140.5541 C   0  0  0  0  0  0  0  0  0  0  0  0
  137.5233  150.3579  141.5572 C   0  0  0  0  0  0  0  0  0  0  0  0
  136.9507  153.4313  145.0774 C   0  0  0  0  0  0  0  0  0  0  0  0
  135.2860  151.7377  145.0270 C   0  0  0  0  0  0  0  0  0  0  0  0
  1  2  2  0
  1  3  1  0
  3  4  1  0
  4  5  2  0
  5  6  1  0
  6  7  1  0
  2  8  1  0
  6  9  2  0
  8 10  2  0
  8 11  1  0
  3 12  2  0
  9 12  1  0
 11 12  1  0
  7 13  2  0
  7 14  1  0
M  END
$$$$

     RDKit          3D

 14 15  0  0  0  0  0  0  0  0999 V2000
  140.3038  150.2150  139.4785 Cl  0  0  0  0  0  0  0  0  0  0  0  0
  138.6786  150.1874  140.5317 C   0  0  0  0  0  0  0  0  0  0  0  0
  137.6385  149.3840  140.0946 C   0  0  0  0  0  0  0  0  0  0  0  0
  138.7506  150.9507  141.6713 C   0  0  0  0  0  0  0  0  0  0  0  0
  136.5527  149.6212  140.7745 C   0  0  0  0  0  0  0  0  0  0  0  0
  135.2919  149.0327  140.1418 C   0  0  0  0  0  0  0  0  0  0  0  0
  136.5287  150.4782  141.8364 C   0  0  0  0  0  0  0  0  0  0  0  0
  135.3193  150.6924  142.7156 C   0  0  0  0  0  0  0  0  0  0  0  0
  135.7668  151.4926  143.9256 C   0  0  0  0  0  0  0  0  0  0  0  0
  137.7598  151.1044  142.3481 C   0  0  0  0  0  0  0  0  0  0  0  0
  137.6723  151.9107  143.6390 S   0  0  0  0  0  0  0  0  0  0  0  0
  136.5629  151.9842  144.4128 C   0  0  0  0  0  0  0  0  0  0  0  0
  136.3747  152.7293  145.7808 C   0  0  0  0  0  0  0  0  0  0  0  0
  135.8992  153.9758  145.8125 C   0  0  0  0  0  0  0  0  0  0  0  0
  1  2  1  0
  2  3  2  0
  2  4  1  0
  3  5  1  0
  5  6  1  0
  5  7  2  0
  7  8  1  0
  8  9  2  0
  4 10  2  0
  7 10  1  0
 10 11  1  0
  9 12  1  0
 11 12  2  0
 12 13  1  0
 13 14  1  0
M  END
$$$$

     RDKit          3D

 14 15  0  0  0  0  0  0  0  0999 V2000
  140.3038  150.2150  139.4785 Cl  0  0  0  0  0  0  0  0  0  0  0  0
  138.6786  150.1874  140.5317 C   0  0  0  0  0  0  0  0  0  0  0  0
  137.6385  149.3840  140.0946 C   0  0  0  0  0  0  0  0  0  0  0  0
  138.8663  150.7187  141.4505 C   0  0  0  0  0  0  0  0  0  0  0  0
  137.8215  150.8029  142.5157 C   0  0  0  0  0  0  0  0  0  0  0  0
  136.6690  150.0407  142.1961 C   0  0  0  0  0  0  0  0  0  0  0  0
  137.4948  148.7965  138.8646 C   0  0  0  0  0  0  0  0  0  0  0  0
  138.1406  151.5013  143.8293 C   0  0  0  0  0  0  0  0  0  0  0  0
  135.6019  150.3310  143.2316 C   0  0  0  0  0  0  0  0  0  0  0  0
  136.4670  149.5684  141.0223 C   0  0  0  0  0  0  0  0  0  0  0  0
  136.0081  151.1975  144.3703 C   0  0  0  0  0  0  0  0  0  0  0  0
  134.8782  151.4527  145.3885 C   0  0  0  0  0  0  0  0  0  0  0  0
  137.1621  151.6331  144.7603 C   0  0  0  0  0  0  0  0  0  0  0  0
  135.2589  152.3317  146.3817 C   0  0  0  0  0  0  0  0  0  0  0  0
  1  2  1  0
  2  3  2  0
  2  4  1  0
  4  5  2  0
  5  6  1  0
  3  7  1  0
  5  8  1  0
  6  9  1  0
  3 10  1  0
  6 10  2  0
  9 11  1  0
 11 12  1  0
  8 13  1  0
 11 13  1  0
 12 14  1  0
M  END
$$$$

     RDKit          3D

 14 15  0  0  0  0  0  0  0  0999 V2000
  139.5546  150.5070  140.4440 C   0  0  0  0  0  0  0  0  0  0  0  0
  139.2168  150.0150  139.3722 C   0  0  0  0  0  0  0  0  0  0  0  0
  138.8581  150.3073  141.5852 C   0  0  0  0  0  0  0  0  0  0  0  0
  137.9799  149.2986  139.2370 C   0  0  0  0  0  0  0  0  0  0  0  0
  137.5554  148.8167  137.9571 C   0  0  0  0  0  0  0  0  0  0  0  0
  139.2072  150.9124  142.9002 C   0  0  0  0  0  0  0  0  0  0  0  0
  138.1324  151.1490  143.9185 C   0  0  0  0  0  0  0  0  0  0  0  0
  137.2046  149.2734  140.4656 C   0  0  0  0  0  0  0  0  0  0  0  0
  136.9162  150.5386  143.4716 C   0  0  0  0  0  0  0  0  0  0  0  0
  137.5163  149.7691  141.5577 C   0  0  0  0  0  0  0  0  0  0  0  0
  135.9115  150.8530  144.5998 C   0  0  0  0  0  0  0  0  0  0  0  0
  135.3989  152.1744  144.6549 C   0  0  0  0  0  0  0  0  0  0  0  0
  135.2650  152.7619  146.0936 C   0  0  0  0  0  0  0  0  0  0  0  0
  136.5974  149.9090  142.5726 N   0  0  0  0  0  0  0  0  0  0  0  0
  1  2  2  0
  1  3  1  0
  2  4  1  0
  4  5  1  0
  3  6  1  0
  6  7  2  0
  4  8  2  0
  7  9  1  0
  3 10  2  0
  8 10  1  0
  9 11  1  0
 11 12  1  0
 12 13  1  0
  9 14  2  0
 10 14  1  0
M  END
$$$$

     RDKit          3D

 14 15  0  0  0  0  0  0  0  0999 V2000
  139.5546  150.5070  140.4440 C   0  0  0  0  0  0  0  0  0  0  0  0
  139.2168  150.0150  139.3722 C   0  0  0  0  0  0  0  0  0  0  0  0
  138.8581  150.3073  141.5852 C   0  0  0  0  0  0  0  0  0  0  0  0
  139.2290  150.3516  142.8905 C   0  0  0  0  0  0  0  0  0  0  0  0
  138.3519  151.0008  143.9747 C   0  0  0  0  0  0  0  0  0  0  0  0
  137.3998  151.4263  143.6194 C   0  0  0  0  0  0  0  0  0  0  0  0
  137.8664  149.5592  139.2622 C   0  0  0  0  0  0  0  0  0  0  0  0
  137.3746  149.0152  138.0520 C   0  0  0  0  0  0  0  0  0  0  0  0
  137.0888  149.7124  140.4655 C   0  0  0  0  0  0  0  0  0  0  0  0
  137.4150  150.3212  141.8210 C   0  0  0  0  0  0  0  0  0  0  0  0
  136.5481  152.2189  144.6454 C   0  0  0  0  0  0  0  0  0  0  0  0
  136.5477  150.8865  142.6180 C   0  0  0  0  0  0  0  0  0  0  0  0
  135.4604  151.7796  145.2687 C   0  0  0  0  0  0  0  0  0  0  0  0
  134.6910  152.6649  146.1793 C   0  0  0  0  0  0  0  0  0  0  0  0
  1  2  2  0
  1  3  1  0
  3  4  1  0
  4  5  2  0
  5  6  1  0
  2  7  1  0
  7  8  1  0
  7  9  2  0
  3 10  2  0
  9 10  1  0
  6 11  1  0
  6 12  2  0
 10 12  1  0
 11 13  1  0
 13 14  1  0
M  END
$$$$

     RDKit          3D

 14 15  0  0  0  0  0  0  0  0999 V2000
  139.5546  150.5070  140.4440 C   0  0  0  0  0  0  0  0  0  0  0  0
  139.2168  150.0150  139.3722 C   0  0  0  0  0  0  0  0  0  0  0  0
  138.8581  150.3073  141.5852 C   0  0  0  0  0  0  0  0  0  0  0  0
  139.2290  150.3516  142.8905 C   0  0  0  0  0  0  0  0  0  0  0  0
  138.3519  151.0008  143.9747 C   0  0  0  0  0  0  0  0  0  0  0  0
  137.0523  151.0914  143.5474 C   0  0  0  0  0  0  0  0  0  0  0  0
  136.6860  150.8725  142.2137 C   0  0  0  0  0  0  0  0  0  0  0  0
  137.8001  149.5956  139.2368 C   0  0  0  0  0  0  0  0  0  0  0  0
  137.2216  149.1364  138.1693 C   0  0  0  0  0  0  0  0  0  0  0  0
  137.4139  150.3237  141.3078 C   0  0  0  0  0  0  0  0  0  0  0  0
  136.9212  149.8750  140.3477 C   0  0  0  0  0  0  0  0  0  0  0  0
  136.2389  151.8190  144.7237 C   0  0  0  0  0  0  0  0  0  0  0  0
  135.0646  151.2122  145.1120 C   0  0  0  0  0  0  0  0  0  0  0  0
  134.2259  151.7537  146.1736 C   0  0  0  0  0  0  0  0  0  0  0  0
  1  2  2  0
  1  3  1  0
  3  4  1  0
  4  5  2  0
  5  6  1  0
  6  7  2  0
  2  8  1  0
  8  9  1  0
  3 10  2  0
  7 10  1  0
  8 11  2  0
 10 11  1  0
  6 12  1  0
 12 13  2  3
 13 14  1  0
M  END
$$$$

     RDKit          3D

 14 15  0  0  0  0  0  0  0  0999 V2000
  140.3038  150.2150  139.4785 Cl  0  0  0  0  0  0  0  0  0  0  0  0
  138.6786  150.1874  140.5317 C   0  0  0  0  0  0  0  0  0  0  0  0
  137.6385  149.3840  140.0946 C   0  0  0  0  0  0  0  0  0  0  0  0
  139.2404  150.7160  141.5759 C   0  0  0  0  0  0  0  0  0  0  0  0
  138.2225  150.6931  142.6929 C   0  0  0  0  0  0  0  0  0  0  0  0
  136.9613  150.0836  142.4469 C   0  0  0  0  0  0  0  0  0  0  0  0
  135.9487  150.2526  143.4885 C   0  0  0  0  0  0  0  0  0  0  0  0
  136.3619  151.1927  144.4166 C   0  0  0  0  0  0  0  0  0  0  0  0
  135.7653  151.7694  145.4030 C   0  0  0  0  0  0  0  0  0  0  0  0
  137.3524  148.9816  138.8956 C   0  0  0  0  0  0  0  0  0  0  0  0
  138.5357  151.3275  143.9781 C   0  0  0  0  0  0  0  0  0  0  0  0
  136.6185  149.4241  141.1653 C   0  0  0  0  0  0  0  0  0  0  0  0
  137.6179  151.5773  144.7702 C   0  0  0  0  0  0  0  0  0  0  0  0
  134.4168  152.1108  145.6732 C   0  0  0  0  0  0  0  0  0  0  0  0
  1  2  1  0
  2  3  1  0
  2  4  2  0
  4  5  1  0
  5  6  2  0
  6  7  1  0
  7  8  1  0
  8  9  2  3
  3 10  1  0
  5 11  1  0
  3 12  2  0
  6 12  1  0
  8 13  1  0
 11 13  1  0
  9 14  1  0
M  END
$$$$

     RDKit          3D

 14 15  0  0  0  0  0  0  0  0999 V2000
  138.9705  151.3131  142.5679 C   0  0  0  0  0  0  0  0  0  0  0  0
  138.6042  152.0888  143.2654 C   0  0  0  0  0  0  0  0  0  0  0  0
  137.6600  151.8318  144.0475 C   0  0  0  0  0  0  0  0  0  0  0  0
  136.5825  152.7511  144.5734 C   0  0  0  0  0  0  0  0  0  0  0  0
  135.5827  152.5121  145.5093 C   0  0  0  0  0  0  0  0  0  0  0  0
  139.9322  151.4080  141.3737 C   0  0  0  0  0  0  0  0  0  0  0  0
  135.6283  151.0416  145.7979 C   0  0  0  0  0  0  0  0  0  0  0  0
  137.2911  150.5061  144.5502 C   0  0  0  0  0  0  0  0  0  0  0  0
  139.6740  150.6670  140.2600 C   0  0  0  0  0  0  0  0  0  0  0  0
  134.5974  150.7455  146.8356 C   0  0  0  0  0  0  0  0  0  0  0  0
  136.4551  150.0956  145.3564 C   0  0  0  0  0  0  0  0  0  0  0  0
  138.4929  149.9508  140.2321 C   0  0  0  0  0  0  0  0  0  0  0  0
  138.1049  150.1345  142.1952 C   0  0  0  0  0  0  0  0  0  0  0  0
  137.8168  149.6004  141.2754 C   0  0  0  0  0  0  0  0  0  0  0  0
  1  2  2  3
  2  3  1  0
  3  4  1  0
  4  5  2  0
  1  6  1  0
  5  7  1  0
  3  8  2  0
  6  9  2  0
  7 10  1  0
  7 11  2  0
  8 11  1  0
  9 12  1  0
  1 13  1  0
 12 14  1  0
 13 14  1  0
M  END
$$$$

     RDKit          3D

 14 15  0  0  0  0  0  0  0  0999 V2000
  139.3423  149.9928  140.5892 C   0  0  0  0  0  0  0  0  0  0  0  0
  138.9530  149.9232  139.3662 C   0  0  0  0  0  0  0  0  0  0  0  0
  138.6126  150.1100  141.6424 C   0  0  0  0  0  0  0  0  0  0  0  0
  137.1875  149.8648  141.8313 C   0  0  0  0  0  0  0  0  0  0  0  0
  136.5143  149.7627  140.5785 C   0  0  0  0  0  0  0  0  0  0  0  0
  139.1751  150.3995  143.1329 C   0  0  0  0  0  0  0  0  0  0  0  0
  138.2221  150.9725  144.0846 C   0  0  0  0  0  0  0  0  0  0  0  0
  139.6660  149.8809  138.1670 C   0  0  0  0  0  0  0  0  0  0  0  0
  136.9203  150.8967  143.8605 C   0  0  0  0  0  0  0  0  0  0  0  0
  136.2936  150.3262  142.8214 C   0  0  0  0  0  0  0  0  0  0  0  0
  136.1111  151.5318  144.9552 C   0  0  0  0  0  0  0  0  0  0  0  0
  136.2014  151.4301  146.2368 C   0  0  0  0  0  0  0  0  0  0  0  0
  135.0417  152.4782  144.5698 C   0  0  0  0  0  0  0  0  0  0  0  0
  137.4180  149.7160  139.3814 C   0  0  0  0  0  0  0  0  0  0  0  0
  1  2  2  0
  1  3  1  0
  3  4  1  0
  4  5  2  0
  3  6  1  0
  6  7  2  0
  2  8  1  0
  7  9  1  0
  4 10  1  0
  9 10  1  0
  9 11  1  0
 11 12  2  0
 11 13  1  0
  2 14  1  0
  5 14  1  0
M  END
$$$$

     RDKit          3D

 14 15  0  0  0  0  0  0  0  0999 V2000
  139.5546  150.5070  140.4440 C   0  0  0  0  0  0  0  0  0  0  0  0
  139.2168  150.0150  139.3722 C   0  0  0  0  0  0  0  0  0  0  0  0
  138.8581  150.3073  141.5852 C   0  0  0  0  0  0  0  0  0  0  0  0
  139.2290  150.3516  142.8905 C   0  0  0  0  0  0  0  0  0  0  0  0
  138.3519  151.0008  143.9747 C   0  0  0  0  0  0  0  0  0  0  0  0
  137.3998  151.4263  143.6194 C   0  0  0  0  0  0  0  0  0  0  0  0
  136.5329  152.2351  144.5998 C   0  0  0  0  0  0  0  0  0  0  0  0
  136.9653  151.2809  142.2541 C   0  0  0  0  0  0  0  0  0  0  0  0
  137.8282  149.6218  139.1911 C   0  0  0  0  0  0  0  0  0  0  0  0
  135.3204  151.7242  145.0379 C   0  0  0  0  0  0  0  0  0  0  0  0
  137.7270  150.6043  141.4369 C   0  0  0  0  0  0  0  0  0  0  0  0
  137.3418  148.9577  138.1202 C   0  0  0  0  0  0  0  0  0  0  0  0
  136.9983  150.0987  140.2993 C   0  0  0  0  0  0  0  0  0  0  0  0
  137.0668  153.1147  145.1772 O   0  0  0  0  0  0  0  0  0  0  0  0
  1  2  2  0
  1  3  1  0
  3  4  1  0
  4  5  2  0
  5  6  1  0
  6  7  1  0
  6  8  2  0
  2  9  1  0
  7 10  1  0
  3 11  2  0
  8 11  1  0
  9 12  1  0
  9 13  2  0
 11 13  1  0
  7 14  2  0
M  END
$$$$

     RDKit          3D

 14 15  0  0  0  0  0  0  0  0999 V2000
  140.3038  150.2150  139.4785 Cl  0  0  0  0  0  0  0  0  0  0  0  0
  138.6786  150.1874  140.5317 C   0  0  0  0  0  0  0  0  0  0  0  0
  137.6385  149.3840  140.0946 C   0  0  0  0  0  0  0  0  0  0  0  0
  138.7506  150.9507  141.6713 C   0  0  0  0  0  0  0  0  0  0  0  0
  136.5527  149.6212  140.7745 C   0  0  0  0  0  0  0  0  0  0  0  0
  135.2919  149.0327  140.1418 C   0  0  0  0  0  0  0  0  0  0  0  0
  136.5287  150.4782  141.8364 C   0  0  0  0  0  0  0  0  0  0  0  0
  135.3193  150.6924  142.7156 C   0  0  0  0  0  0  0  0  0  0  0  0
  135.8151  151.3358  144.0288 C   0  0  0  0  0  0  0  0  0  0  0  0
  137.7454  151.0900  142.3267 C   0  0  0  0  0  0  0  0  0  0  0  0
  135.2438  151.1717  145.2002 C   0  0  0  0  0  0  0  0  0  0  0  0
  136.7790  152.2275  143.9150 C   0  0  0  0  0  0  0  0  0  0  0  0
  135.8320  151.8041  146.3375 C   0  0  0  0  0  0  0  0  0  0  0  0
  138.0187  151.7997  143.2501 C   0  0  0  0  0  0  0  0  0  0  0  0
  1  2  1  0
  2  3  2  0
  2  4  1  0
  3  5  1  0
  5  6  1  0
  5  7  2  0
  7  8  1  0
  8  9  1  0
  4 10  2  0
  7 10  1  0
  9 11  2  3
  9 12  1  0
 11 13  1  0
 10 14  1  0
 12 14  2  0
M  END
$$$$

     RDKit          3D

 14 15  0  0  0  0  0  0  0  0999 V2000
  139.3423  149.9928  140.5892 C   0  0  0  0  0  0  0  0  0  0  0  0
  138.9530  149.9232  139.3662 C   0  0  0  0  0  0  0  0  0  0  0  0
  138.6126  150.1100  141.6424 C   0  0  0  0  0  0  0  0  0  0  0  0
  137.1875  149.8648  141.8313 C   0  0  0  0  0  0  0  0  0  0  0  0
  136.5143  149.7627  140.5785 C   0  0  0  0  0  0  0  0  0  0  0  0
  139.1422  150.4925  143.0862 C   0  0  0  0  0  0  0  0  0  0  0  0
  138.2697  151.1411  143.8764 C   0  0  0  0  0  0  0  0  0  0  0  0
  136.9541  151.0016  143.8143 C   0  0  0  0  0  0  0  0  0  0  0  0
  136.3226  150.3068  142.8356 C   0  0  0  0  0  0  0  0  0  0  0  0
  136.1157  151.6244  145.0783 C   0  0  0  0  0  0  0  0  0  0  0  0
  139.7152  149.9282  138.1979 C   0  0  0  0  0  0  0  0  0  0  0  0
  137.4701  149.7005  139.3239 C   0  0  0  0  0  0  0  0  0  0  0  0
  136.5199  151.8592  146.2332 C   0  0  0  0  0  0  0  0  0  0  0  0
  135.2234  152.5372  144.9973 C   0  0  0  0  0  0  0  0  0  0  0  0
  1  2  2  0
  1  3  1  0
  3  4  1  0
  4  5  2  0
  3  6  1  0
  6  7  2  0
  7  8  1  0
  4  9  1  0
  8  9  2  0
  8 10  1  0
  2 11  1  0
  2 12  1  0
  5 12  1  0
 10 13  1  0
 10 14  1  0
M  END
$$$$

     RDKit          3D

 14 15  0  0  0  0  0  0  0  0999 V2000
  139.3423  149.9928  140.5892 C   0  0  0  0  0  0  0  0  0  0  0  0
  138.9530  149.9232  139.3662 C   0  0  0  0  0  0  0  0  0  0  0  0
  138.6126  150.1100  141.6424 C   0  0  0  0  0  0  0  0  0  0  0  0
  137.1875  149.8648  141.8313 C   0  0  0  0  0  0  0  0  0  0  0  0
  136.5143  149.7627  140.5785 C   0  0  0  0  0  0  0  0  0  0  0  0
  139.1751  150.3995  143.1329 C   0  0  0  0  0  0  0  0  0  0  0  0
  138.3315  151.1461  143.8950 C   0  0  0  0  0  0  0  0  0  0  0  0
  135.0981  149.6674  140.3637 C   0  0  0  0  0  0  0  0  0  0  0  0
  139.6837  149.8630  138.1743 C   0  0  0  0  0  0  0  0  0  0  0  0
  137.0153  151.0564  144.0316 C   0  0  0  0  0  0  0  0  0  0  0  0
  136.3187  151.4986  145.1678 C   0  0  0  0  0  0  0  0  0  0  0  0
  137.3768  149.7032  139.2571 C   0  0  0  0  0  0  0  0  0  0  0  0
  136.3955  150.2114  142.9581 N   0  0  0  0  0  0  0  0  0  0  0  0
  136.7721  151.8413  146.2797 O   0  0  0  0  0  0  0  0  0  0  0  0
  1  2  2  0
  1  3  1  0
  3  4  1  0
  4  5  2  0
  3  6  1  0
  6  7  2  0
  5  8  1  0
  2  9  1  0
  7 10  1  0
 10 11  1  0
  2 12  1  0
  5 12  1  0
  4 13  1  0
 10 13  2  0
 11 14  1  0
M  END
$$$$

     RDKit          3D

 14 15  0  0  0  0  0  0  0  0999 V2000
  139.3423  149.9928  140.5892 C   0  0  0  0  0  0  0  0  0  0  0  0
  138.9530  149.9232  139.3662 C   0  0  0  0  0  0  0  0  0  0  0  0
  138.6126  150.1100  141.6424 C   0  0  0  0  0  0  0  0  0  0  0  0
  137.1875  149.8648  141.8313 C   0  0  0  0  0  0  0  0  0  0  0  0
  136.5143  149.7627  140.5785 C   0  0  0  0  0  0  0  0  0  0  0  0
  139.1422  150.4925  143.0862 C   0  0  0  0  0  0  0  0  0  0  0  0
  138.1958  151.0001  144.0544 C   0  0  0  0  0  0  0  0  0  0  0  0
  136.7353  150.3949  143.0646 C   0  0  0  0  0  0  0  0  0  0  0  0
  135.1509  149.5438  140.5010 C   0  0  0  0  0  0  0  0  0  0  0  0
  137.0479  150.7366  144.0791 C   0  0  0  0  0  0  0  0  0  0  0  0
  136.2437  151.3811  145.2333 C   0  0  0  0  0  0  0  0  0  0  0  0
  137.4333  149.6949  139.3985 C   0  0  0  0  0  0  0  0  0  0  0  0
  136.5703  151.5729  146.4580 C   0  0  0  0  0  0  0  0  0  0  0  0
  135.3167  152.1030  144.7935 C   0  0  0  0  0  0  0  0  0  0  0  0
  1  2  2  0
  1  3  1  0
  3  4  1  0
  4  5  2  0
  3  6  1  0
  6  7  2  0
  4  8  1  0
  5  9  1  0
  7 10  1  0
  8 10  2  0
 10 11  1  0
  2 12  1  0
  5 12  1  0
 11 13  1  0
 11 14  1  0
M  END
$$$$

     RDKit          3D

 14 15  0  0  0  0  0  0  0  0999 V2000
  140.3038  150.2150  139.4785 Cl  0  0  0  0  0  0  0  0  0  0  0  0
  138.6786  150.1874  140.5317 C   0  0  0  0  0  0  0  0  0  0  0  0
  137.6385  149.3840  140.0946 C   0  0  0  0  0  0  0  0  0  0  0  0
  138.7506  150.9507  141.6713 C   0  0  0  0  0  0  0  0  0  0  0  0
  136.5527  149.6212  140.7745 C   0  0  0  0  0  0  0  0  0  0  0  0
  135.2919  149.0327  140.1418 C   0  0  0  0  0  0  0  0  0  0  0  0
  136.5287  150.4782  141.8364 C   0  0  0  0  0  0  0  0  0  0  0  0
  135.3193  150.6924  142.7156 C   0  0  0  0  0  0  0  0  0  0  0  0
  135.8151  151.3358  144.0288 C   0  0  0  0  0  0  0  0  0  0  0  0
  137.7454  151.0900  142.3267 C   0  0  0  0  0  0  0  0  0  0  0  0
  135.2438  151.1717  145.2002 C   0  0  0  0  0  0  0  0  0  0  0  0
  137.6953  151.9137  143.6636 C   0  0  0  0  0  0  0  0  0  0  0  0
  136.1073  151.7502  146.3000 C   0  0  0  0  0  0  0  0  0  0  0  0
  136.6523  152.2026  144.1657 N   0  0  0  0  0  0  0  0  0  0  0  0
  1  2  1  0
  2  3  2  0
  2  4  1  0
  3  5  1  0
  5  6  1  0
  5  7  2  0
  7  8  1  0
  8  9  1  0
  4 10  2  0
  7 10  1  0
  9 11  2  3
 10 12  1  0
 11 13  1  0
  9 14  1  0
 12 14  2  0
M  END
$$$$

     RDKit          3D

 14 15  0  0  0  0  0  0  0  0999 V2000
  138.9705  151.3131  142.5679 C   0  0  0  0  0  0  0  0  0  0  0  0
  138.6042  152.0888  143.2654 C   0  0  0  0  0  0  0  0  0  0  0  0
  137.4887  151.7640  144.1910 C   0  0  0  0  0  0  0  0  0  0  0  0
  137.1673  150.4135  144.2710 C   0  0  0  0  0  0  0  0  0  0  0  0
  136.7837  152.6380  145.0886 C   0  0  0  0  0  0  0  0  0  0  0  0
  138.5889  149.8386  142.4057 C   0  0  0  0  0  0  0  0  0  0  0  0
  137.0939  153.8636  145.1629 C   0  0  0  0  0  0  0  0  0  0  0  0
  139.0958  149.0319  141.4957 C   0  0  0  0  0  0  0  0  0  0  0  0
  135.6368  152.1771  145.3913 C   0  0  0  0  0  0  0  0  0  0  0  0
  135.3317  150.8634  145.3879 C   0  0  0  0  0  0  0  0  0  0  0  0
  137.4908  149.6126  143.3782 C   0  0  0  0  0  0  0  0  0  0  0  0
  134.2642  150.3728  146.2802 C   0  0  0  0  0  0  0  0  0  0  0  0
  134.6799  152.9126  146.0143 C   0  0  0  0  0  0  0  0  0  0  0  0
  136.1608  150.0765  144.7543 N   0  0  0  0  0  0  0  0  0  0  0  0
  1  2  1  0
  2  3  2  0
  3  4  1  0
  3  5  1  0
  1  6  2  0
  5  7  1  0
  6  8  1  0
  5  9  2  0
  9 10  1  0
  4 11  2  0
  6 11  1  0
 10 12  1  0
  9 13  1  0
  4 14  1  0
 10 14  2  0
M  END
$$$$

     RDKit          3D

 14 15  0  0  0  0  0  0  0  0999 V2000
  139.3423  149.9928  140.5892 C   0  0  0  0  0  0  0  0  0  0  0  0
  138.9530  149.9232  139.3662 C   0  0  0  0  0  0  0  0  0  0  0  0
  138.6126  150.1100  141.6424 C   0  0  0  0  0  0  0  0  0  0  0  0
  137.1875  149.8648  141.8313 C   0  0  0  0  0  0  0  0  0  0  0  0
  136.5143  149.7627  140.5785 C   0  0  0  0  0  0  0  0  0  0  0  0
  139.1751  150.3995  143.1329 C   0  0  0  0  0  0  0  0  0  0  0  0
  138.3315  151.1461  143.8950 C   0  0  0  0  0  0  0  0  0  0  0  0
  135.0981  149.6674  140.3637 C   0  0  0  0  0  0  0  0  0  0  0  0
  139.6837  149.8630  138.1743 C   0  0  0  0  0  0  0  0  0  0  0  0
  137.0153  151.0564  144.0316 C   0  0  0  0  0  0  0  0  0  0  0  0
  137.3804  149.7132  139.2752 C   0  0  0  0  0  0  0  0  0  0  0  0
  136.3115  151.4873  145.1532 C   0  0  0  0  0  0  0  0  0  0  0  0
  136.3957  150.2132  142.9582 C   0  0  0  0  0  0  0  0  0  0  0  0
  135.1479  152.1902  144.9638 C   0  0  0  0  0  0  0  0  0  0  0  0
  1  2  2  0
  1  3  1  0
  3  4  1  0
  4  5  2  0
  3  6  1  0
  6  7  2  0
  5  8  1  0
  2  9  1  0
  7 10  1  0
  2 11  1  0
  5 11  1  0
 10 12  1  0
  4 13  1  0
 10 13  2  0
 12 14  1  0
M  END
$$$$

     RDKit          3D

 14 15  0  0  0  0  0  0  0  0999 V2000
  140.3038  150.2150  139.4785 Cl  0  0  0  0  0  0  0  0  0  0  0  0
  138.6786  150.1874  140.5317 C   0  0  0  0  0  0  0  0  0  0  0  0
  137.6385  149.3840  140.0946 C   0  0  0  0  0  0  0  0  0  0  0  0
  139.2404  150.7160  141.5759 C   0  0  0  0  0  0  0  0  0  0  0  0
  138.3592  151.0512  142.3776 C   0  0  0  0  0  0  0  0  0  0  0  0
  136.9526  150.5124  142.2952 C   0  0  0  0  0  0  0  0  0  0  0  0
  138.4072  151.7168  143.9009 C   0  0  0  0  0  0  0  0  0  0  0  0
  137.3935  148.7832  139.0047 C   0  0  0  0  0  0  0  0  0  0  0  0
  135.9042  150.8550  143.2900 C   0  0  0  0  0  0  0  0  0  0  0  0
  136.5817  149.8744  141.0868 C   0  0  0  0  0  0  0  0  0  0  0  0
  137.2996  151.8292  144.5257 C   0  0  0  0  0  0  0  0  0  0  0  0
  136.0933  151.4210  144.3571 C   0  0  0  0  0  0  0  0  0  0  0  0
  135.0912  151.7999  145.3207 C   0  0  0  0  0  0  0  0  0  0  0  0
  135.4191  152.5092  146.2944 C   0  0  0  0  0  0  0  0  0  0  0  0
  1  2  1  0
  2  3  1  0
  2  4  2  0
  4  5  1  0
  5  6  2  0
  5  7  1  0
  3  8  1  0
  6  9  1  0
  3 10  2  0
  6 10  1  0
  7 11  2  0
  9 12  2  0
 11 12  1  0
 12 13  1  0
 13 14  2  0
M  END
$$$$

     RDKit          3D

 14 15  0  0  0  0  0  0  0  0999 V2000
  138.9705  151.3131  142.5679 C   0  0  0  0  0  0  0  0  0  0  0  0
  138.6042  152.0888  143.2654 C   0  0  0  0  0  0  0  0  0  0  0  0
  137.6600  151.8318  144.0475 C   0  0  0  0  0  0  0  0  0  0  0  0
  136.5825  152.7511  144.5734 C   0  0  0  0  0  0  0  0  0  0  0  0
  135.5827  152.5121  145.5093 C   0  0  0  0  0  0  0  0  0  0  0  0
  139.9322  151.4080  141.3737 C   0  0  0  0  0  0  0  0  0  0  0  0
  135.6283  151.0416  145.7979 C   0  0  0  0  0  0  0  0  0  0  0  0
  139.6618  150.7206  140.2290 C   0  0  0  0  0  0  0  0  0  0  0  0
  137.2798  150.4935  144.5471 C   0  0  0  0  0  0  0  0  0  0  0  0
  136.3854  150.1314  145.4417 C   0  0  0  0  0  0  0  0  0  0  0  0
  138.4722  150.0213  140.1853 C   0  0  0  0  0  0  0  0  0  0  0  0
  137.5144  149.8046  141.2135 C   0  0  0  0  0  0  0  0  0  0  0  0
  137.8650  150.2834  142.2108 C   0  0  0  0  0  0  0  0  0  0  0  0
  138.1195  149.4426  138.7032 C   0  0  0  0  0  0  0  0  0  0  0  0
  1  2  2  3
  2  3  1  0
  3  4  1  0
  4  5  2  0
  1  6  1  0
  5  7  1  0
  6  8  2  0
  3  9  2  0
  7 10  2  0
  9 10  1  0
  8 11  1  0
 11 12  1  0
  1 13  1  0
 12 13  2  0
 11 14  1  0
M  END
$$$$

     RDKit          3D

 14 15  0  0  0  0  0  0  0  0999 V2000
  139.5546  150.5070  140.4440 C   0  0  0  0  0  0  0  0  0  0  0  0
  139.2168  150.0150  139.3722 C   0  0  0  0  0  0  0  0  0  0  0  0
  138.8581  150.3073  141.5852 C   0  0  0  0  0  0  0  0  0  0  0  0
  139.2290  150.3516  142.8905 C   0  0  0  0  0  0  0  0  0  0  0  0
  138.3519  151.0008  143.9747 C   0  0  0  0  0  0  0  0  0  0  0  0
  137.3998  151.4263  143.6194 C   0  0  0  0  0  0  0  0  0  0  0  0
  137.8664  149.5592  139.2622 C   0  0  0  0  0  0  0  0  0  0  0  0
  137.3746  149.0152  138.0520 C   0  0  0  0  0  0  0  0  0  0  0  0
  137.0888  149.7124  140.4655 C   0  0  0  0  0  0  0  0  0  0  0  0
  137.4150  150.3212  141.8210 C   0  0  0  0  0  0  0  0  0  0  0  0
  136.5481  152.2189  144.6454 C   0  0  0  0  0  0  0  0  0  0  0  0
  136.5477  150.8865  142.6180 C   0  0  0  0  0  0  0  0  0  0  0  0
  135.4604  151.7796  145.2687 C   0  0  0  0  0  0  0  0  0  0  0  0
  134.6910  152.6649  146.1793 C   0  0  0  0  0  0  0  0  0  0  0  0
  1  2  2  0
  1  3  1  0
  3  4  1  0
  4  5  2  0
  5  6  1  0
  2  7  1  0
  7  8  1  0
  7  9  2  0
  3 10  2  0
  9 10  1  0
  6 11  1  0
  6 12  2  0
 10 12  1  0
 11 13  1  0
 13 14  2  0
M  END
$$$$

     RDKit          3D

 14 15  0  0  0  0  0  0  0  0999 V2000
  139.5546  150.5070  140.4440 C   0  0  0  0  0  0  0  0  0  0  0  0
  139.2168  150.0150  139.3722 C   0  0  0  0  0  0  0  0  0  0  0  0
  138.8581  150.3073  141.5852 C   0  0  0  0  0  0  0  0  0  0  0  0
  137.9799  149.2986  139.2370 C   0  0  0  0  0  0  0  0  0  0  0  0
  137.1575  149.1630  140.3909 C   0  0  0  0  0  0  0  0  0  0  0  0
  139.3383  150.9197  142.9169 C   0  0  0  0  0  0  0  0  0  0  0  0
  138.3080  151.0871  143.9346 C   0  0  0  0  0  0  0  0  0  0  0  0
  135.7334  148.7642  140.2438 C   0  0  0  0  0  0  0  0  0  0  0  0
  137.1254  150.5266  143.5545 C   0  0  0  0  0  0  0  0  0  0  0  0
  136.0596  150.7968  144.4933 C   0  0  0  0  0  0  0  0  0  0  0  0
  137.5394  149.7776  141.5404 C   0  0  0  0  0  0  0  0  0  0  0  0
  135.3950  151.9121  144.5453 C   0  0  0  0  0  0  0  0  0  0  0  0
  136.6979  149.8917  142.6430 N   0  0  0  0  0  0  0  0  0  0  0  0
  135.6672  152.8192  145.6826 C   0  0  0  0  0  0  0  0  0  0  0  0
  1  2  2  0
  1  3  1  0
  2  4  1  0
  4  5  2  0
  3  6  1  0
  6  7  2  0
  5  8  1  0
  7  9  1  0
  9 10  1  0
  3 11  2  0
  5 11  1  0
 10 12  1  0
  9 13  2  0
 11 13  1  0
 12 14  1  0
M  END
$$$$

     RDKit          3D

 14 15  0  0  0  0  0  0  0  0999 V2000
  139.3423  149.9928  140.5892 C   0  0  0  0  0  0  0  0  0  0  0  0
  138.9530  149.9232  139.3662 C   0  0  0  0  0  0  0  0  0  0  0  0
  138.6126  150.1100  141.6424 C   0  0  0  0  0  0  0  0  0  0  0  0
  137.1875  149.8648  141.8313 C   0  0  0  0  0  0  0  0  0  0  0  0
  136.5143  149.7627  140.5785 C   0  0  0  0  0  0  0  0  0  0  0  0
  139.1751  150.3995  143.1329 C   0  0  0  0  0  0  0  0  0  0  0  0
  138.3315  151.1461  143.8950 C   0  0  0  0  0  0  0  0  0  0  0  0
  135.0981  149.6674  140.3637 C   0  0  0  0  0  0  0  0  0  0  0  0
  139.6837  149.8630  138.1743 C   0  0  0  0  0  0  0  0  0  0  0  0
  137.0153  151.0564  144.0316 C   0  0  0  0  0  0  0  0  0  0  0  0
  137.3804  149.7132  139.2752 C   0  0  0  0  0  0  0  0  0  0  0  0
  136.3115  151.4873  145.1532 C   0  0  0  0  0  0  0  0  0  0  0  0
  136.4556  150.4581  142.8884 N   0  0  0  0  0  0  0  0  0  0  0  0
  135.1960  152.1877  144.9538 C   0  0  0  0  0  0  0  0  0  0  0  0
  1  2  2  0
  1  3  1  0
  3  4  1  0
  4  5  2  0
  3  6  1  0
  6  7  2  0
  5  8  1  0
  2  9  1  0
  7 10  1  0
  2 11  1  0
  5 11  1  0
 10 12  1  0
  4 13  1  0
 10 13  2  0
 12 14  1  0
M  END
$$$$

     RDKit          3D

 14 15  0  0  0  0  0  0  0  0999 V2000
  138.9705  151.3131  142.5679 C   0  0  0  0  0  0  0  0  0  0  0  0
  138.6042  152.0888  143.2654 C   0  0  0  0  0  0  0  0  0  0  0  0
  137.6600  151.8318  144.0475 C   0  0  0  0  0  0  0  0  0  0  0  0
  136.5825  152.7511  144.5734 C   0  0  0  0  0  0  0  0  0  0  0  0
  135.5827  152.5121  145.5093 C   0  0  0  0  0  0  0  0  0  0  0  0
  139.9322  151.4080  141.3737 C   0  0  0  0  0  0  0  0  0  0  0  0
  135.6283  151.0416  145.7979 C   0  0  0  0  0  0  0  0  0  0  0  0
  137.2911  150.5061  144.5502 C   0  0  0  0  0  0  0  0  0  0  0  0
  139.6740  150.6670  140.2600 C   0  0  0  0  0  0  0  0  0  0  0  0
  134.5974  150.7455  146.8356 C   0  0  0  0  0  0  0  0  0  0  0  0
  136.4551  150.0956  145.3564 C   0  0  0  0  0  0  0  0  0  0  0  0
  138.4929  149.9508  140.2321 C   0  0  0  0  0  0  0  0  0  0  0  0
  138.1049  150.1345  142.1952 C   0  0  0  0  0  0  0  0  0  0  0  0
  137.8168  149.6004  141.2754 C   0  0  0  0  0  0  0  0  0  0  0  0
  1  2  2  3
  2  3  1  0
  3  4  1  0
  4  5  2  0
  1  6  1  0
  5  7  1  0
  3  8  2  0
  6  9  2  0
  7 10  1  0
  7 11  2  0
  8 11  1  0
  9 12  1  0
  1 13  1  0
 12 14  2  0
 13 14  2  0
M  END
$$$$

     RDKit          3D

 14 15  0  0  0  0  0  0  0  0999 V2000
  139.3423  149.9928  140.5892 C   0  0  0  0  0  0  0  0  0  0  0  0
  138.9530  149.9232  139.3662 C   0  0  0  0  0  0  0  0  0  0  0  0
  138.6126  150.1100  141.6424 C   0  0  0  0  0  0  0  0  0  0  0  0
  137.1875  149.8648  141.8313 C   0  0  0  0  0  0  0  0  0  0  0  0
  136.5143  149.7627  140.5785 C   0  0  0  0  0  0  0  0  0  0  0  0
  139.1751  150.3995  143.1329 C   0  0  0  0  0  0  0  0  0  0  0  0
  138.2221  150.9725  144.0846 C   0  0  0  0  0  0  0  0  0  0  0  0
  139.6660  149.8809  138.1670 C   0  0  0  0  0  0  0  0  0  0  0  0
  136.9203  150.8967  143.8605 C   0  0  0  0  0  0  0  0  0  0  0  0
  136.9668  149.6661  139.2303 C   0  0  0  0  0  0  0  0  0  0  0  0
  136.1110  151.3528  145.0459 C   0  0  0  0  0  0  0  0  0  0  0  0
  135.0815  152.3094  144.8225 C   0  0  0  0  0  0  0  0  0  0  0  0
  136.4161  150.0634  142.8946 N   0  0  0  0  0  0  0  0  0  0  0  0
  138.1708  149.7880  138.7265 C   0  0  0  0  0  0  0  0  0  0  0  0
  1  2  2  0
  1  3  1  0
  3  4  1  0
  4  5  2  0
  3  6  1  0
  6  7  2  0
  2  8  1  0
  7  9  1  0
  5 10  1  0
  9 11  1  0
 11 12  1  0
  4 13  1  0
  9 13  2  0
  2 14  1  0
 10 14  2  0
M  END
$$$$

     RDKit          3D

 14 15  0  0  0  0  0  0  0  0999 V2000
  139.5546  150.5070  140.4440 C   0  0  0  0  0  0  0  0  0  0  0  0
  139.2168  150.0150  139.3722 C   0  0  0  0  0  0  0  0  0  0  0  0
  138.8581  150.3073  141.5852 C   0  0  0  0  0  0  0  0  0  0  0  0
  139.2290  150.3516  142.8905 C   0  0  0  0  0  0  0  0  0  0  0  0
  138.3519  151.0008  143.9747 C   0  0  0  0  0  0  0  0  0  0  0  0
  137.3998  151.4263  143.6194 C   0  0  0  0  0  0  0  0  0  0  0  0
  136.5329  152.2351  144.5998 C   0  0  0  0  0  0  0  0  0  0  0  0
  137.8483  149.5152  139.3347 C   0  0  0  0  0  0  0  0  0  0  0  0
  137.0061  151.1934  142.2679 C   0  0  0  0  0  0  0  0  0  0  0  0
  137.2884  149.0249  138.2611 C   0  0  0  0  0  0  0  0  0  0  0  0
  137.1232  149.7392  140.5541 C   0  0  0  0  0  0  0  0  0  0  0  0
  135.3622  151.6924  145.0884 C   0  0  0  0  0  0  0  0  0  0  0  0
  136.9089  153.4829  145.0096 C   0  0  0  0  0  0  0  0  0  0  0  0
  137.5474  150.3756  141.5142 C   0  0  0  0  0  0  0  0  0  0  0  0
  1  2  2  0
  1  3  1  0
  3  4  1  0
  4  5  2  0
  5  6  1  0
  6  7  1  0
  2  8  1  0
  6  9  2  0
  8 10  2  0
  8 11  1  0
  7 12  1  0
  7 13  2  0
  3 14  1  0
  9 14  1  0
 11 14  2  0
M  END
$$$$

     RDKit          3D

 14 15  0  0  0  0  0  0  0  0999 V2000
  140.3038  150.2150  139.4785 Cl  0  0  0  0  0  0  0  0  0  0  0  0
  138.6786  150.1874  140.5317 C   0  0  0  0  0  0  0  0  0  0  0  0
  137.6385  149.3840  140.0946 C   0  0  0  0  0  0  0  0  0  0  0  0
  138.8663  150.7187  141.4505 C   0  0  0  0  0  0  0  0  0  0  0  0
  136.5679  149.5915  140.7717 C   0  0  0  0  0  0  0  0  0  0  0  0
  135.2802  149.0558  140.2099 C   0  0  0  0  0  0  0  0  0  0  0  0
  136.6063  150.4574  141.8322 C   0  0  0  0  0  0  0  0  0  0  0  0
  135.4286  150.7337  142.7297 C   0  0  0  0  0  0  0  0  0  0  0  0
  135.9364  151.5296  143.9345 C   0  0  0  0  0  0  0  0  0  0  0  0
  135.1724  151.8786  145.0130 C   0  0  0  0  0  0  0  0  0  0  0  0
  137.8575  151.0382  142.2914 C   0  0  0  0  0  0  0  0  0  0  0  0
  137.1784  151.9356  144.1024 C   0  0  0  0  0  0  0  0  0  0  0  0
  134.8975  151.2218  146.0620 C   0  0  0  0  0  0  0  0  0  0  0  0
  138.0513  151.8512  143.5555 C   0  0  0  0  0  0  0  0  0  0  0  0
  1  2  1  0
  2  3  2  0
  2  4  1  0
  3  5  1  0
  5  6  1  0
  5  7  2  0
  7  8  1  0
  8  9  2  0
  9 10  1  0
  4 11  2  0
  7 11  1  0
  9 12  1  0
 10 13  2  0
 11 14  1  0
 12 14  2  0
M  END
$$$$

     RDKit          3D

 14 15  0  0  0  0  0  0  0  0999 V2000
  140.3038  150.2150  139.4785 Cl  0  0  0  0  0  0  0  0  0  0  0  0
  138.6786  150.1874  140.5317 C   0  0  0  0  0  0  0  0  0  0  0  0
  137.6385  149.3840  140.0946 C   0  0  0  0  0  0  0  0  0  0  0  0
  139.2404  150.7160  141.5759 C   0  0  0  0  0  0  0  0  0  0  0  0
  138.2225  150.6931  142.6929 C   0  0  0  0  0  0  0  0  0  0  0  0
  136.9613  150.0836  142.4469 C   0  0  0  0  0  0  0  0  0  0  0  0
  135.9487  150.2526  143.4885 C   0  0  0  0  0  0  0  0  0  0  0  0
  136.3619  151.1927  144.4166 C   0  0  0  0  0  0  0  0  0  0  0  0
  135.7653  151.7694  145.4030 C   0  0  0  0  0  0  0  0  0  0  0  0
  137.3524  148.9816  138.8956 C   0  0  0  0  0  0  0  0  0  0  0  0
  138.3619  151.3166  144.0090 C   0  0  0  0  0  0  0  0  0  0  0  0
  136.6962  149.5246  141.2441 C   0  0  0  0  0  0  0  0  0  0  0  0
  137.3968  151.5468  144.7023 C   0  0  0  0  0  0  0  0  0  0  0  0
  134.3920  152.0862  145.5716 C   0  0  0  0  0  0  0  0  0  0  0  0
  1  2  1  0
  2  3  1  0
  2  4  2  0
  4  5  1  0
  5  6  2  0
  6  7  1  0
  7  8  1  0
  8  9  2  3
  3 10  1  0
  5 11  1  0
  3 12  2  0
  6 12  1  0
  8 13  1  0
 11 13  2  0
  9 14  1  0
M  END
$$$$

     RDKit          3D

 14 14  0  0  0  0  0  0  0  0999 V2000
  139.5546  150.5070  140.4440 C   0  0  0  0  0  0  0  0  0  0  0  0
  139.2168  150.0150  139.3722 C   0  0  0  0  0  0  0  0  0  0  0  0
  138.8581  150.3073  141.5852 C   0  0  0  0  0  0  0  0  0  0  0  0
  139.2290  150.3516  142.8905 C   0  0  0  0  0  0  0  0  0  0  0  0
  138.3519  151.0008  143.9747 C   0  0  0  0  0  0  0  0  0  0  0  0
  137.3998  151.4263  143.6194 C   0  0  0  0  0  0  0  0  0  0  0  0
  136.5329  152.2351  144.5998 C   0  0  0  0  0  0  0  0  0  0  0  0
  136.9466  151.2605  142.2215 C   0  0  0  0  0  0  0  0  0  0  0  0
  135.3507  151.6956  145.0820 C   0  0  0  0  0  0  0  0  0  0  0  0
  140.0126  149.8366  138.1758 C   0  0  0  0  0  0  0  0  0  0  0  0
  137.4783  150.5936  141.4024 C   0  0  0  0  0  0  0  0  0  0  0  0
  136.9586  153.5093  145.0512 C   0  0  0  0  0  0  0  0  0  0  0  0
  135.0341  152.1324  146.2955 C   0  0  0  0  0  0  0  0  0  0  0  0
  134.1247  151.4531  147.0794 C   0  0  0  0  0  0  0  0  0  0  0  0
  1  2  2  3
  1  3  1  0
  3  4  1  0
  4  5  2  0
  5  6  1  0
  6  7  1  0
  6  8  2  0
  7  9  2  3
  2 10  1  0
  3 11  2  0
  8 11  1  0
  7 12  1  0
  9 13  1  0
 13 14  1  0
M  END
$$$$

     RDKit          3D

 14 15  0  0  0  0  0  0  0  0999 V2000
  138.9705  151.3131  142.5679 C   0  0  0  0  0  0  0  0  0  0  0  0
  138.6042  152.0888  143.2654 C   0  0  0  0  0  0  0  0  0  0  0  0
  137.4887  151.7640  144.1910 C   0  0  0  0  0  0  0  0  0  0  0  0
  137.1673  150.4135  144.2710 C   0  0  0  0  0  0  0  0  0  0  0  0
  136.7837  152.6380  145.0886 C   0  0  0  0  0  0  0  0  0  0  0  0
  138.5889  149.8386  142.4057 C   0  0  0  0  0  0  0  0  0  0  0  0
  137.0939  153.8636  145.1629 C   0  0  0  0  0  0  0  0  0  0  0  0
  139.0958  149.0319  141.4957 C   0  0  0  0  0  0  0  0  0  0  0  0
  138.9655  149.3989  140.0909 C   0  0  0  0  0  0  0  0  0  0  0  0
  135.6339  152.1940  145.3963 C   0  0  0  0  0  0  0  0  0  0  0  0
  135.3253  150.8781  145.4110 C   0  0  0  0  0  0  0  0  0  0  0  0
  136.0991  149.9319  144.9411 C   0  0  0  0  0  0  0  0  0  0  0  0
  137.7307  149.3659  143.4821 N   0  0  0  0  0  0  0  0  0  0  0  0
  139.6245  150.3304  139.5384 C   0  0  0  0  0  0  0  0  0  0  0  0
  1  2  1  0
  2  3  2  0
  3  4  1  0
  3  5  1  0
  1  6  2  0
  5  7  1  0
  6  8  1  0
  8  9  1  0
  5 10  2  0
 10 11  1  0
  4 12  1  0
 11 12  2  0
  4 13  2  0
  6 13  1  0
  9 14  2  0
M  END
$$$$

     RDKit          3D

 14 15  0  0  0  0  0  0  0  0999 V2000
  139.3423  149.9928  140.5892 C   0  0  0  0  0  0  0  0  0  0  0  0
  138.9530  149.9232  139.3662 C   0  0  0  0  0  0  0  0  0  0  0  0
  138.6126  150.1100  141.6424 C   0  0  0  0  0  0  0  0  0  0  0  0
  137.1875  149.8648  141.8313 C   0  0  0  0  0  0  0  0  0  0  0  0
  136.5143  149.7627  140.5785 C   0  0  0  0  0  0  0  0  0  0  0  0
  139.1751  150.3995  143.1329 C   0  0  0  0  0  0  0  0  0  0  0  0
  138.3315  151.1461  143.8950 C   0  0  0  0  0  0  0  0  0  0  0  0
  135.0981  149.6674  140.3637 C   0  0  0  0  0  0  0  0  0  0  0  0
  139.6837  149.8630  138.1743 C   0  0  0  0  0  0  0  0  0  0  0  0
  137.0153  151.0564  144.0316 C   0  0  0  0  0  0  0  0  0  0  0  0
  137.3804  149.7132  139.2752 C   0  0  0  0  0  0  0  0  0  0  0  0
  136.3115  151.4873  145.1532 C   0  0  0  0  0  0  0  0  0  0  0  0
  136.3957  150.2132  142.9582 N   0  0  0  0  0  0  0  0  0  0  0  0
  136.7519  151.8154  146.2783 O   0  0  0  0  0  0  0  0  0  0  0  0
  1  2  2  0
  1  3  1  0
  3  4  1  0
  4  5  2  0
  3  6  1  0
  6  7  2  0
  5  8  1  0
  2  9  1  0
  7 10  1  0
  2 11  1  0
  5 11  1  0
 10 12  1  0
  4 13  1  0
 10 13  2  0
 12 14  2  0
M  END
$$$$

     RDKit          3D

 14 15  0  0  0  0  0  0  0  0999 V2000
  138.9705  151.3131  142.5679 C   0  0  0  0  0  0  0  0  0  0  0  0
  138.6042  152.0888  143.2654 C   0  0  0  0  0  0  0  0  0  0  0  0
  139.7531  151.4376  141.3509 C   0  0  0  0  0  0  0  0  0  0  0  0
  137.7656  151.7117  144.3553 C   0  0  0  0  0  0  0  0  0  0  0  0
  136.9071  152.4952  145.1793 C   0  0  0  0  0  0  0  0  0  0  0  0
  139.5680  150.5566  140.2446 C   0  0  0  0  0  0  0  0  0  0  0  0
  137.0955  153.8090  145.1300 C   0  0  0  0  0  0  0  0  0  0  0  0
  138.5854  149.5207  140.6466 C   0  0  0  0  0  0  0  0  0  0  0  0
  136.0552  152.0124  145.7506 C   0  0  0  0  0  0  0  0  0  0  0  0
  138.1591  150.0533  142.4514 C   0  0  0  0  0  0  0  0  0  0  0  0
  137.4949  150.0289  143.8229 C   0  0  0  0  0  0  0  0  0  0  0  0
  138.2444  148.7485  139.3423 C   0  0  0  0  0  0  0  0  0  0  0  0
  134.9281  152.7732  146.2664 C   0  0  0  0  0  0  0  0  0  0  0  0
  137.8453  149.1391  141.6651 N   0  0  0  0  0  0  0  0  0  0  0  0
  1  2  1  0
  1  3  1  0
  2  4  2  0
  4  5  1  0
  3  6  2  0
  5  7  1  0
  6  8  1  0
  5  9  2  3
  1 10  2  0
  4 11  1  0
 10 11  1  0
  8 12  1  0
  9 13  1  0
  8 14  2  0
 10 14  1  0
M  END
$$$$

     RDKit          3D

 14 15  0  0  0  0  0  0  0  0999 V2000
  138.9705  151.3131  142.5679 C   0  0  0  0  0  0  0  0  0  0  0  0
  138.6042  152.0888  143.2654 C   0  0  0  0  0  0  0  0  0  0  0  0
  137.6600  151.8318  144.0475 C   0  0  0  0  0  0  0  0  0  0  0  0
  136.5825  152.7511  144.5734 C   0  0  0  0  0  0  0  0  0  0  0  0
  135.5827  152.5121  145.5093 C   0  0  0  0  0  0  0  0  0  0  0  0
  139.9322  151.4080  141.3737 C   0  0  0  0  0  0  0  0  0  0  0  0
  135.6283  151.0416  145.7979 C   0  0  0  0  0  0  0  0  0  0  0  0
  139.6618  150.7206  140.2290 C   0  0  0  0  0  0  0  0  0  0  0  0
  137.2798  150.4935  144.5471 C   0  0  0  0  0  0  0  0  0  0  0  0
  136.3854  150.1314  145.4417 C   0  0  0  0  0  0  0  0  0  0  0  0
  138.4722  150.0213  140.1853 C   0  0  0  0  0  0  0  0  0  0  0  0
  137.5144  149.8046  141.2135 C   0  0  0  0  0  0  0  0  0  0  0  0
  140.5304  150.7431  139.1589 C   0  0  0  0  0  0  0  0  0  0  0  0
  138.0205  150.5524  142.3498 C   0  0  0  0  0  0  0  0  0  0  0  0
  1  2  2  3
  2  3  1  0
  3  4  1  0
  4  5  2  0
  1  6  1  0
  5  7  1  0
  6  8  2  0
  3  9  2  0
  7 10  2  0
  9 10  1  0
  8 11  1  0
 11 12  1  0
  8 13  1  0
  1 14  1  0
 12 14  1  0
M  END
$$$$

     RDKit          3D

 14 15  0  0  0  0  0  0  0  0999 V2000
  139.5546  150.5070  140.4440 C   0  0  0  0  0  0  0  0  0  0  0  0
  139.2168  150.0150  139.3722 C   0  0  0  0  0  0  0  0  0  0  0  0
  138.8581  150.3073  141.5852 C   0  0  0  0  0  0  0  0  0  0  0  0
  139.2290  150.3516  142.8905 C   0  0  0  0  0  0  0  0  0  0  0  0
  138.3519  151.0008  143.9747 C   0  0  0  0  0  0  0  0  0  0  0  0
  137.3998  151.4263  143.6194 C   0  0  0  0  0  0  0  0  0  0  0  0
  136.5329  152.2351  144.5998 C   0  0  0  0  0  0  0  0  0  0  0  0
  137.8483  149.5152  139.3347 C   0  0  0  0  0  0  0  0  0  0  0  0
  137.0061  151.1934  142.2679 C   0  0  0  0  0  0  0  0  0  0  0  0
  137.2884  149.0249  138.2611 C   0  0  0  0  0  0  0  0  0  0  0  0
  137.1232  149.7392  140.5541 C   0  0  0  0  0  0  0  0  0  0  0  0
  135.3622  151.6924  145.0884 C   0  0  0  0  0  0  0  0  0  0  0  0
  137.4982  150.4456  141.5513 C   0  0  0  0  0  0  0  0  0  0  0  0
  137.0064  153.1818  145.1713 O   0  0  0  0  0  0  0  0  0  0  0  0
  1  2  2  0
  1  3  1  0
  3  4  1  0
  4  5  2  0
  5  6  1  0
  6  7  1  0
  2  8  1  0
  6  9  2  0
  8 10  2  0
  8 11  1  0
  7 12  1  0
  3 13  1  0
  9 13  1  0
 11 13  2  0
  7 14  2  0
M  END
$$$$

     RDKit          3D

 14 15  0  0  0  0  0  0  0  0999 V2000
  139.3423  149.9928  140.5892 C   0  0  0  0  0  0  0  0  0  0  0  0
  138.9530  149.9232  139.3662 C   0  0  0  0  0  0  0  0  0  0  0  0
  138.6126  150.1100  141.6424 C   0  0  0  0  0  0  0  0  0  0  0  0
  137.1875  149.8648  141.8313 C   0  0  0  0  0  0  0  0  0  0  0  0
  136.5143  149.7627  140.5785 C   0  0  0  0  0  0  0  0  0  0  0  0
  139.1751  150.3995  143.1329 C   0  0  0  0  0  0  0  0  0  0  0  0
  138.2221  150.9725  144.0846 C   0  0  0  0  0  0  0  0  0  0  0  0
  139.6660  149.8809  138.1670 C   0  0  0  0  0  0  0  0  0  0  0  0
  136.9203  150.8967  143.8605 C   0  0  0  0  0  0  0  0  0  0  0  0
  137.3919  149.7281  139.3042 C   0  0  0  0  0  0  0  0  0  0  0  0
  136.2926  150.4346  142.9402 C   0  0  0  0  0  0  0  0  0  0  0  0
  136.1135  151.4897  145.0562 C   0  0  0  0  0  0  0  0  0  0  0  0
  136.4486  151.7191  146.2691 C   0  0  0  0  0  0  0  0  0  0  0  0
  134.8305  152.0014  144.8149 C   0  0  0  0  0  0  0  0  0  0  0  0
  1  2  2  0
  1  3  1  0
  3  4  1  0
  4  5  2  0
  3  6  1  0
  6  7  2  0
  2  8  1  0
  7  9  1  0
  2 10  1  0
  5 10  1  0
  4 11  1  0
  9 11  2  0
  9 12  1  0
 12 13  1  0
 12 14  2  0
M  END
$$$$

     RDKit          3D

 14 15  0  0  0  0  0  0  0  0999 V2000
  140.3038  150.2150  139.4785 Cl  0  0  0  0  0  0  0  0  0  0  0  0
  138.6786  150.1874  140.5317 C   0  0  0  0  0  0  0  0  0  0  0  0
  137.6385  149.3840  140.0946 C   0  0  0  0  0  0  0  0  0  0  0  0
  139.2404  150.7160  141.5759 C   0  0  0  0  0  0  0  0  0  0  0  0
  138.3592  151.0512  142.3776 C   0  0  0  0  0  0  0  0  0  0  0  0
  136.9526  150.5124  142.2952 C   0  0  0  0  0  0  0  0  0  0  0  0
  138.4072  151.7168  143.9009 C   0  0  0  0  0  0  0  0  0  0  0  0
  137.3935  148.7832  139.0047 C   0  0  0  0  0  0  0  0  0  0  0  0
  135.9042  150.8550  143.2900 C   0  0  0  0  0  0  0  0  0  0  0  0
  136.5817  149.8744  141.0868 C   0  0  0  0  0  0  0  0  0  0  0  0
  137.2996  151.8292  144.5257 C   0  0  0  0  0  0  0  0  0  0  0  0
  136.0933  151.4210  144.3571 C   0  0  0  0  0  0  0  0  0  0  0  0
  135.0912  151.7999  145.3207 C   0  0  0  0  0  0  0  0  0  0  0  0
  135.4191  152.5092  146.2944 C   0  0  0  0  0  0  0  0  0  0  0  0
  1  2  1  0
  2  3  1  0
  2  4  2  0
  4  5  1  0
  5  6  2  0
  5  7  1  0
  3  8  1  0
  6  9  1  0
  3 10  2  0
  6 10  1  0
  7 11  2  0
  9 12  2  0
 11 12  1  0
 12 13  1  0
 13 14  1  0
M  END
$$$$

     RDKit          3D

 14 15  0  0  0  0  0  0  0  0999 V2000
  138.9705  151.3131  142.5679 C   0  0  0  0  0  0  0  0  0  0  0  0
  138.6042  152.0888  143.2654 C   0  0  0  0  0  0  0  0  0  0  0  0
  137.4887  151.7640  144.1910 C   0  0  0  0  0  0  0  0  0  0  0  0
  137.1673  150.4135  144.2710 C   0  0  0  0  0  0  0  0  0  0  0  0
  136.7837  152.6380  145.0886 C   0  0  0  0  0  0  0  0  0  0  0  0
  138.5889  149.8386  142.4057 C   0  0  0  0  0  0  0  0  0  0  0  0
  137.0939  153.8636  145.1629 C   0  0  0  0  0  0  0  0  0  0  0  0
  139.0958  149.0319  141.4957 C   0  0  0  0  0  0  0  0  0  0  0  0
  138.9655  149.3989  140.0909 C   0  0  0  0  0  0  0  0  0  0  0  0
  135.6272  152.1482  145.6705 C   0  0  0  0  0  0  0  0  0  0  0  0
  135.4044  150.8287  145.6572 C   0  0  0  0  0  0  0  0  0  0  0  0
  137.5699  149.5354  143.3308 N   0  0  0  0  0  0  0  0  0  0  0  0
  139.4181  150.3514  139.5313 C   0  0  0  0  0  0  0  0  0  0  0  0
  136.1413  149.8466  145.0220 N   0  0  0  0  0  0  0  0  0  0  0  0
  1  2  1  0
  2  3  2  0
  3  4  1  0
  3  5  1  0
  1  6  2  0
  5  7  1  0
  6  8  1  0
  8  9  1  0
  5 10  2  0
 10 11  1  0
  4 12  1  0
  6 12  1  0
  9 13  2  0
  4 14  2  0
 11 14  1  0
M  END
$$$$

     RDKit          3D

 14 15  0  0  0  0  0  0  0  0999 V2000
  138.9705  151.3131  142.5679 C   0  0  0  0  0  0  0  0  0  0  0  0
  138.6042  152.0888  143.2654 C   0  0  0  0  0  0  0  0  0  0  0  0
  139.7531  151.4376  141.3509 C   0  0  0  0  0  0  0  0  0  0  0  0
  137.7656  151.7117  144.3553 C   0  0  0  0  0  0  0  0  0  0  0  0
  136.9071  152.4952  145.1793 C   0  0  0  0  0  0  0  0  0  0  0  0
  139.5680  150.5566  140.2446 C   0  0  0  0  0  0  0  0  0  0  0  0
  137.0955  153.8090  145.1300 C   0  0  0  0  0  0  0  0  0  0  0  0
  138.5854  149.5207  140.6466 C   0  0  0  0  0  0  0  0  0  0  0  0
  136.0552  152.0124  145.7506 C   0  0  0  0  0  0  0  0  0  0  0  0
  138.1591  150.0533  142.4514 C   0  0  0  0  0  0  0  0  0  0  0  0
  137.4949  150.0289  143.8229 C   0  0  0  0  0  0  0  0  0  0  0  0
  137.8607  149.1503  141.6844 C   0  0  0  0  0  0  0  0  0  0  0  0
  140.3589  150.6513  139.0066 C   0  0  0  0  0  0  0  0  0  0  0  0
  134.9200  152.7716  146.2562 C   0  0  0  0  0  0  0  0  0  0  0  0
  1  2  1  0
  1  3  1  0
  2  4  2  0
  4  5  1  0
  3  6  2  0
  5  7  1  0
  6  8  1  0
  5  9  2  3
  1 10  2  0
  4 11  1  0
 10 11  1  0
  8 12  2  0
 10 12  1  0
  6 13  1  0
  9 14  1  0
M  END
$$$$

     RDKit          3D

 14 15  0  0  0  0  0  0  0  0999 V2000
  139.3423  149.9928  140.5892 C   0  0  0  0  0  0  0  0  0  0  0  0
  138.9530  149.9232  139.3662 C   0  0  0  0  0  0  0  0  0  0  0  0
  138.6126  150.1100  141.6424 C   0  0  0  0  0  0  0  0  0  0  0  0
  137.1875  149.8648  141.8313 C   0  0  0  0  0  0  0  0  0  0  0  0
  136.5143  149.7627  140.5785 C   0  0  0  0  0  0  0  0  0  0  0  0
  139.1751  150.3995  143.1329 C   0  0  0  0  0  0  0  0  0  0  0  0
  138.2221  150.9725  144.0846 C   0  0  0  0  0  0  0  0  0  0  0  0
  136.9301  150.9606  143.8481 C   0  0  0  0  0  0  0  0  0  0  0  0
  139.8133  149.9572  138.2292 C   0  0  0  0  0  0  0  0  0  0  0  0
  136.9624  149.6545  139.2592 C   0  0  0  0  0  0  0  0  0  0  0  0
  138.0346  149.7781  138.7022 C   0  0  0  0  0  0  0  0  0  0  0  0
  136.3137  150.3912  142.7749 C   0  0  0  0  0  0  0  0  0  0  0  0
  135.9915  151.7376  145.0745 C   0  0  0  0  0  0  0  0  0  0  0  0
  136.4728  152.8067  145.7309 C   0  0  0  0  0  0  0  0  0  0  0  0
  1  2  2  0
  1  3  1  0
  3  4  1  0
  4  5  2  0
  3  6  1  0
  6  7  2  0
  7  8  1  0
  2  9  1  0
  5 10  1  0
  2 11  1  0
 10 11  2  0
  4 12  1  0
  8 12  2  0
  8 13  1  0
 13 14  1  0
M  END
$$$$

     RDKit          3D

 14 15  0  0  0  0  0  0  0  0999 V2000
  138.9705  151.3131  142.5679 C   0  0  0  0  0  0  0  0  0  0  0  0
  138.6042  152.0888  143.2654 C   0  0  0  0  0  0  0  0  0  0  0  0
  137.4887  151.7640  144.1910 C   0  0  0  0  0  0  0  0  0  0  0  0
  137.1673  150.4135  144.2710 C   0  0  0  0  0  0  0  0  0  0  0  0
  136.7837  152.6380  145.0886 C   0  0  0  0  0  0  0  0  0  0  0  0
  138.5889  149.8386  142.4057 C   0  0  0  0  0  0  0  0  0  0  0  0
  137.0939  153.8636  145.1629 C   0  0  0  0  0  0  0  0  0  0  0  0
  139.0958  149.0319  141.4957 C   0  0  0  0  0  0  0  0  0  0  0  0
  135.6368  152.1771  145.3913 C   0  0  0  0  0  0  0  0  0  0  0  0
  135.3317  150.8634  145.3879 C   0  0  0  0  0  0  0  0  0  0  0  0
  137.4908  149.6126  143.3782 C   0  0  0  0  0  0  0  0  0  0  0  0
  134.2642  150.3728  146.2802 C   0  0  0  0  0  0  0  0  0  0  0  0
  134.6799  152.9126  146.0143 C   0  0  0  0  0  0  0  0  0  0  0  0
  136.3779  150.0545  145.2183 N   0  0  0  0  0  0  0  0  0  0  0  0
  1  2  1  0
  2  3  2  0
  3  4  1  0
  3  5  1  0
  1  6  2  0
  5  7  1  0
  6  8  1  0
  5  9  2  0
  9 10  1  0
  4 11  2  0
  6 11  1  0
 10 12  1  0
  9 13  1  0
  4 14  1  0
 10 14  1  0
M  END
$$$$

     RDKit          3D

 14 15  0  0  0  0  0  0  0  0999 V2000
  138.9705  151.3131  142.5679 C   0  0  0  0  0  0  0  0  0  0  0  0
  138.6042  152.0888  143.2654 C   0  0  0  0  0  0  0  0  0  0  0  0
  137.4887  151.7640  144.1910 C   0  0  0  0  0  0  0  0  0  0  0  0
  137.1673  150.4135  144.2710 C   0  0  0  0  0  0  0  0  0  0  0  0
  136.7837  152.6380  145.0886 C   0  0  0  0  0  0  0  0  0  0  0  0
  138.5889  149.8386  142.4057 C   0  0  0  0  0  0  0  0  0  0  0  0
  137.0939  153.8636  145.1629 C   0  0  0  0  0  0  0  0  0  0  0  0
  139.0958  149.0319  141.4957 C   0  0  0  0  0  0  0  0  0  0  0  0
  135.6368  152.1771  145.3913 C   0  0  0  0  0  0  0  0  0  0  0  0
  135.3317  150.8634  145.3879 C   0  0  0  0  0  0  0  0  0  0  0  0
  139.4080  149.6929  140.2383 C   0  0  0  0  0  0  0  0  0  0  0  0
  137.4725  149.5155  143.3046 N   0  0  0  0  0  0  0  0  0  0  0  0
  136.1703  149.8522  144.8695 C   0  0  0  0  0  0  0  0  0  0  0  0
  139.6310  148.9720  139.0659 C   0  0  0  0  0  0  0  0  0  0  0  0
  1  2  1  0
  2  3  2  0
  3  4  1  0
  3  5  1  0
  1  6  2  0
  5  7  1  0
  6  8  1  0
  5  9  2  0
  9 10  1  0
  8 11  2  3
  4 12  2  0
  6 12  1  0
  4 13  1  0
 10 13  2  0
 11 14  1  0
M  END
$$$$

     RDKit          3D

 14 15  0  0  0  0  0  0  0  0999 V2000
  139.5546  150.5070  140.4440 C   0  0  0  0  0  0  0  0  0  0  0  0
  139.2168  150.0150  139.3722 C   0  0  0  0  0  0  0  0  0  0  0  0
  138.8581  150.3073  141.5852 C   0  0  0  0  0  0  0  0  0  0  0  0
  139.2290  150.3516  142.8905 C   0  0  0  0  0  0  0  0  0  0  0  0
  138.3519  151.0008  143.9747 C   0  0  0  0  0  0  0  0  0  0  0  0
  137.3998  151.4263  143.6194 C   0  0  0  0  0  0  0  0  0  0  0  0
  136.5329  152.2351  144.5998 C   0  0  0  0  0  0  0  0  0  0  0  0
  140.0211  149.8480  138.1416 C   0  0  0  0  0  0  0  0  0  0  0  0
  136.9530  151.2219  142.2408 C   0  0  0  0  0  0  0  0  0  0  0  0
  137.5310  150.6139  141.3916 C   0  0  0  0  0  0  0  0  0  0  0  0
  136.9561  153.4364  145.0757 C   0  0  0  0  0  0  0  0  0  0  0  0
  135.6475  151.7148  145.2364 C   0  0  0  0  0  0  0  0  0  0  0  0
  135.1279  152.4183  146.2321 C   0  0  0  0  0  0  0  0  0  0  0  0
  135.7247  153.7056  146.3686 C   0  0  0  0  0  0  0  0  0  0  0  0
  1  2  2  3
  1  3  1  0
  3  4  1  0
  4  5  2  0
  5  6  1  0
  6  7  1  0
  2  8  1  0
  6  9  2  0
  3 10  2  0
  9 10  1  0
  7 11  1  0
  7 12  2  0
 12 13  1  0
 11 14  1  0
 13 14  2  0
M  END
$$$$

     RDKit          3D

 14 15  0  0  0  0  0  0  0  0999 V2000
  140.3038  150.2150  139.4785 Cl  0  0  0  0  0  0  0  0  0  0  0  0
  138.6786  150.1874  140.5317 C   0  0  0  0  0  0  0  0  0  0  0  0
  137.6385  149.3840  140.0946 C   0  0  0  0  0  0  0  0  0  0  0  0
  139.2404  150.7160  141.5759 C   0  0  0  0  0  0  0  0  0  0  0  0
  138.3592  151.0512  142.3776 C   0  0  0  0  0  0  0  0  0  0  0  0
  136.9526  150.5124  142.2952 C   0  0  0  0  0  0  0  0  0  0  0  0
  138.4072  151.7168  143.9009 C   0  0  0  0  0  0  0  0  0  0  0  0
  135.8504  150.7944  143.2209 C   0  0  0  0  0  0  0  0  0  0  0  0
  136.5561  149.7374  140.9435 C   0  0  0  0  0  0  0  0  0  0  0  0
  136.3179  151.4521  144.2824 C   0  0  0  0  0  0  0  0  0  0  0  0
  135.1064  151.7136  145.3229 C   0  0  0  0  0  0  0  0  0  0  0  0
  134.0717  151.3145  145.5487 C   0  0  0  0  0  0  0  0  0  0  0  0
  137.5441  151.9641  144.7587 C   0  0  0  0  0  0  0  0  0  0  0  0
  135.7099  152.8845  146.1160 C   0  0  0  0  0  0  0  0  0  0  0  0
  1  2  1  0
  2  3  1  0
  2  4  2  0
  4  5  1  0
  5  6  2  0
  5  7  1  0
  6  8  1  0
  3  9  2  0
  6  9  1  0
  8 10  2  0
 10 11  1  0
 11 12  2  0
  7 13  2  0
 10 13  1  0
 11 14  1  0
M  END
$$$$

     RDKit          3D

 14 15  0  0  0  0  0  0  0  0999 V2000
  140.3038  150.2150  139.4785 Cl  0  0  0  0  0  0  0  0  0  0  0  0
  138.6786  150.1874  140.5317 C   0  0  0  0  0  0  0  0  0  0  0  0
  137.6385  149.3840  140.0946 C   0  0  0  0  0  0  0  0  0  0  0  0
  139.2404  150.7160  141.5759 C   0  0  0  0  0  0  0  0  0  0  0  0
  138.2225  150.6931  142.6929 C   0  0  0  0  0  0  0  0  0  0  0  0
  136.9613  150.0836  142.4469 C   0  0  0  0  0  0  0  0  0  0  0  0
  135.9487  150.2526  143.4885 C   0  0  0  0  0  0  0  0  0  0  0  0
  136.3619  151.1927  144.4166 C   0  0  0  0  0  0  0  0  0  0  0  0
  135.7653  151.7694  145.4030 C   0  0  0  0  0  0  0  0  0  0  0  0
  137.3524  148.9816  138.8956 C   0  0  0  0  0  0  0  0  0  0  0  0
  138.3619  151.3166  144.0090 C   0  0  0  0  0  0  0  0  0  0  0  0
  136.7267  149.5234  141.2005 N   0  0  0  0  0  0  0  0  0  0  0  0
  137.5598  151.5752  144.8036 C   0  0  0  0  0  0  0  0  0  0  0  0
  135.7594  152.7949  145.8061 C   0  0  0  0  0  0  0  0  0  0  0  0
  1  2  1  0
  2  3  1  0
  2  4  2  0
  4  5  1  0
  5  6  2  0
  6  7  1  0
  7  8  1  0
  8  9  2  3
  3 10  1  0
  5 11  1  0
  3 12  2  0
  6 12  1  0
  8 13  1  0
 11 13  2  0
  9 14  1  0
M  END
$$$$

     RDKit          3D

 14 15  0  0  0  0  0  0  0  0999 V2000
  138.9705  151.3131  142.5679 C   0  0  0  0  0  0  0  0  0  0  0  0
  138.6042  152.0888  143.2654 C   0  0  0  0  0  0  0  0  0  0  0  0
  137.4887  151.7640  144.1910 C   0  0  0  0  0  0  0  0  0  0  0  0
  137.1673  150.4135  144.2710 C   0  0  0  0  0  0  0  0  0  0  0  0
  136.7837  152.6380  145.0886 C   0  0  0  0  0  0  0  0  0  0  0  0
  138.5889  149.8386  142.4057 C   0  0  0  0  0  0  0  0  0  0  0  0
  137.0939  153.8636  145.1629 C   0  0  0  0  0  0  0  0  0  0  0  0
  139.0958  149.0319  141.4957 C   0  0  0  0  0  0  0  0  0  0  0  0
  138.9655  149.3989  140.0909 C   0  0  0  0  0  0  0  0  0  0  0  0
  135.6339  152.1940  145.3963 C   0  0  0  0  0  0  0  0  0  0  0  0
  135.3253  150.8781  145.4110 C   0  0  0  0  0  0  0  0  0  0  0  0
  136.0991  149.9319  144.9411 C   0  0  0  0  0  0  0  0  0  0  0  0
  137.7307  149.3659  143.4821 N   0  0  0  0  0  0  0  0  0  0  0  0
  139.6245  150.3304  139.5384 C   0  0  0  0  0  0  0  0  0  0  0  0
  1  2  1  0
  2  3  2  0
  3  4  1  0
  3  5  1  0
  1  6  2  0
  5  7  1  0
  6  8  1  0
  8  9  1  0
  5 10  2  0
 10 11  1  0
  4 12  1  0
 11 12  2  0
  4 13  2  0
  6 13  1  0
  9 14  1  0
M  END
$$$$

     RDKit          3D

 14 15  0  0  0  0  0  0  0  0999 V2000
  138.9705  151.3131  142.5679 C   0  0  0  0  0  0  0  0  0  0  0  0
  138.6042  152.0888  143.2654 C   0  0  0  0  0  0  0  0  0  0  0  0
  137.6600  151.8318  144.0475 C   0  0  0  0  0  0  0  0  0  0  0  0
  136.5825  152.7511  144.5734 C   0  0  0  0  0  0  0  0  0  0  0  0
  135.5827  152.5121  145.5093 C   0  0  0  0  0  0  0  0  0  0  0  0
  139.9322  151.4080  141.3737 C   0  0  0  0  0  0  0  0  0  0  0  0
  135.6283  151.0416  145.7979 C   0  0  0  0  0  0  0  0  0  0  0  0
  137.2911  150.5061  144.5502 C   0  0  0  0  0  0  0  0  0  0  0  0
  134.5918  150.7438  146.8312 C   0  0  0  0  0  0  0  0  0  0  0  0
  139.6732  150.6665  140.2632 C   0  0  0  0  0  0  0  0  0  0  0  0
  136.3692  150.0825  145.4219 C   0  0  0  0  0  0  0  0  0  0  0  0
  138.4954  149.9498  140.2342 C   0  0  0  0  0  0  0  0  0  0  0  0
  138.3368  150.0790  142.2195 C   0  0  0  0  0  0  0  0  0  0  0  0
  137.9446  149.5218  141.2698 C   0  0  0  0  0  0  0  0  0  0  0  0
  1  2  2  3
  2  3  1  0
  3  4  1  0
  4  5  2  0
  1  6  1  0
  5  7  1  0
  3  8  2  0
  7  9  1  0
  6 10  2  0
  7 11  2  0
  8 11  1  0
 10 12  1  0
  1 13  1  0
 12 14  2  0
 13 14  1  0
M  END
$$$$

     RDKit          3D

 14 15  0  0  0  0  0  0  0  0999 V2000
  139.5546  150.5070  140.4440 C   0  0  0  0  0  0  0  0  0  0  0  0
  139.2168  150.0150  139.3722 C   0  0  0  0  0  0  0  0  0  0  0  0
  138.8581  150.3073  141.5852 C   0  0  0  0  0  0  0  0  0  0  0  0
  139.2290  150.3516  142.8905 C   0  0  0  0  0  0  0  0  0  0  0  0
  138.3519  151.0008  143.9747 C   0  0  0  0  0  0  0  0  0  0  0  0
  137.3998  151.4263  143.6194 C   0  0  0  0  0  0  0  0  0  0  0  0
  136.5329  152.2351  144.5998 C   0  0  0  0  0  0  0  0  0  0  0  0
  136.9653  151.2809  142.2541 C   0  0  0  0  0  0  0  0  0  0  0  0
  137.8282  149.6218  139.1911 C   0  0  0  0  0  0  0  0  0  0  0  0
  137.6049  150.6587  141.3979 C   0  0  0  0  0  0  0  0  0  0  0  0
  135.4107  151.6624  145.1578 C   0  0  0  0  0  0  0  0  0  0  0  0
  136.9876  153.2743  145.0156 O   0  0  0  0  0  0  0  0  0  0  0  0
  137.3527  148.9464  138.1355 C   0  0  0  0  0  0  0  0  0  0  0  0
  137.0547  150.0813  140.2687 N   0  0  0  0  0  0  0  0  0  0  0  0
  1  2  2  0
  1  3  1  0
  3  4  1  0
  4  5  2  0
  5  6  1  0
  6  7  1  0
  6  8  2  0
  2  9  1  0
  3 10  2  0
  8 10  1  0
  7 11  1  0
  7 12  2  0
  9 13  1  0
  9 14  2  0
 10 14  1  0
M  END
$$$$

     RDKit          3D

 14 15  0  0  0  0  0  0  0  0999 V2000
  139.3423  149.9928  140.5892 C   0  0  0  0  0  0  0  0  0  0  0  0
  138.9530  149.9232  139.3662 C   0  0  0  0  0  0  0  0  0  0  0  0
  138.6126  150.1100  141.6424 C   0  0  0  0  0  0  0  0  0  0  0  0
  137.1875  149.8648  141.8313 C   0  0  0  0  0  0  0  0  0  0  0  0
  136.5143  149.7627  140.5785 C   0  0  0  0  0  0  0  0  0  0  0  0
  139.1422  150.4925  143.0862 C   0  0  0  0  0  0  0  0  0  0  0  0
  138.2697  151.1411  143.8764 C   0  0  0  0  0  0  0  0  0  0  0  0
  139.6670  149.8864  138.1606 C   0  0  0  0  0  0  0  0  0  0  0  0
  137.0386  149.6854  139.2154 C   0  0  0  0  0  0  0  0  0  0  0  0
  137.1519  151.2104  144.1348 C   0  0  0  0  0  0  0  0  0  0  0  0
  136.1829  150.5202  143.1931 C   0  0  0  0  0  0  0  0  0  0  0  0
  136.2059  151.7817  145.0924 C   0  0  0  0  0  0  0  0  0  0  0  0
  135.0648  151.4905  145.3865 C   0  0  0  0  0  0  0  0  0  0  0  0
  134.3518  152.2517  146.4909 C   0  0  0  0  0  0  0  0  0  0  0  0
  1  2  2  0
  1  3  1  0
  3  4  1  0
  4  5  2  0
  3  6  1  0
  6  7  2  0
  2  8  1  0
  2  9  1  0
  5  9  1  0
  7 10  1  0
  4 11  1  0
 10 11  2  0
 10 12  1  0
 12 13  2  3
 13 14  1  0
M  END
$$$$

     RDKit          3D

 14 15  0  0  0  0  0  0  0  0999 V2000
  138.9705  151.3131  142.5679 C   0  0  0  0  0  0  0  0  0  0  0  0
  138.6042  152.0888  143.2654 C   0  0  0  0  0  0  0  0  0  0  0  0
  139.7531  151.4376  141.3509 C   0  0  0  0  0  0  0  0  0  0  0  0
  137.7656  151.7117  144.3553 C   0  0  0  0  0  0  0  0  0  0  0  0
  136.9071  152.4952  145.1793 C   0  0  0  0  0  0  0  0  0  0  0  0
  139.5680  150.5566  140.2446 C   0  0  0  0  0  0  0  0  0  0  0  0
  137.0955  153.8090  145.1300 C   0  0  0  0  0  0  0  0  0  0  0  0
  138.5854  149.5207  140.6466 C   0  0  0  0  0  0  0  0  0  0  0  0
  136.0552  152.0124  145.7506 C   0  0  0  0  0  0  0  0  0  0  0  0
  138.1591  150.0533  142.4514 C   0  0  0  0  0  0  0  0  0  0  0  0
  137.4949  150.0289  143.8229 C   0  0  0  0  0  0  0  0  0  0  0  0
  134.9170  152.7682  146.2521 C   0  0  0  0  0  0  0  0  0  0  0  0
  140.2731  150.5327  139.1025 C   0  0  0  0  0  0  0  0  0  0  0  0
  137.8708  149.1393  141.6750 N   0  0  0  0  0  0  0  0  0  0  0  0
  1  2  1  0
  1  3  1  0
  2  4  2  0
  4  5  1  0
  3  6  2  0
  5  7  1  0
  6  8  1  0
  5  9  2  3
  1 10  2  0
  4 11  1  0
 10 11  1  0
  9 12  1  0
  6 13  1  0
  8 14  2  0
 10 14  1  0
M  END
$$$$

     RDKit          3D

 14 15  0  0  0  0  0  0  0  0999 V2000
  139.3423  149.9928  140.5892 C   0  0  0  0  0  0  0  0  0  0  0  0
  138.9530  149.9232  139.3662 C   0  0  0  0  0  0  0  0  0  0  0  0
  138.6126  150.1100  141.6424 C   0  0  0  0  0  0  0  0  0  0  0  0
  137.1875  149.8648  141.8313 C   0  0  0  0  0  0  0  0  0  0  0  0
  136.5143  149.7627  140.5785 C   0  0  0  0  0  0  0  0  0  0  0  0
  139.1751  150.3995  143.1329 C   0  0  0  0  0  0  0  0  0  0  0  0
  138.3315  151.1461  143.8950 C   0  0  0  0  0  0  0  0  0  0  0  0
  135.0981  149.6674  140.3637 C   0  0  0  0  0  0  0  0  0  0  0  0
  139.6837  149.8630  138.1743 C   0  0  0  0  0  0  0  0  0  0  0  0
  137.0153  151.0564  144.0316 C   0  0  0  0  0  0  0  0  0  0  0  0
  137.3804  149.7132  139.2752 C   0  0  0  0  0  0  0  0  0  0  0  0
  136.3115  151.4873  145.1532 C   0  0  0  0  0  0  0  0  0  0  0  0
  136.3957  150.2132  142.9582 N   0  0  0  0  0  0  0  0  0  0  0  0
  135.1476  152.1031  144.9386 C   0  0  0  0  0  0  0  0  0  0  0  0
  1  2  2  0
  1  3  1  0
  3  4  1  0
  4  5  2  0
  3  6  1  0
  6  7  2  0
  5  8  1  0
  2  9  1  0
  7 10  1  0
  2 11  1  0
  5 11  1  0
 10 12  1  0
  4 13  1  0
 10 13  2  0
 12 14  2  0
M  END
$$$$

     RDKit          3D

 14 15  0  0  0  0  0  0  0  0999 V2000
  139.3423  149.9928  140.5892 C   0  0  0  0  0  0  0  0  0  0  0  0
  138.9530  149.9232  139.3662 C   0  0  0  0  0  0  0  0  0  0  0  0
  138.6126  150.1100  141.6424 C   0  0  0  0  0  0  0  0  0  0  0  0
  137.1875  149.8648  141.8313 C   0  0  0  0  0  0  0  0  0  0  0  0
  136.5143  149.7627  140.5785 C   0  0  0  0  0  0  0  0  0  0  0  0
  139.1422  150.4925  143.0862 C   0  0  0  0  0  0  0  0  0  0  0  0
  138.2697  151.1411  143.8764 C   0  0  0  0  0  0  0  0  0  0  0  0
  139.6670  149.8864  138.1606 C   0  0  0  0  0  0  0  0  0  0  0  0
  137.0386  149.6854  139.2154 C   0  0  0  0  0  0  0  0  0  0  0  0
  137.1519  151.2104  144.1348 C   0  0  0  0  0  0  0  0  0  0  0  0
  136.1829  150.5202  143.1931 C   0  0  0  0  0  0  0  0  0  0  0  0
  136.2059  151.7817  145.0924 C   0  0  0  0  0  0  0  0  0  0  0  0
  135.0648  151.4905  145.3865 C   0  0  0  0  0  0  0  0  0  0  0  0
  136.8101  152.9010  145.8413 O   0  0  0  0  0  0  0  0  0  0  0  0
  1  2  2  0
  1  3  1  0
  3  4  1  0
  4  5  2  0
  3  6  1  0
  6  7  2  0
  2  8  1  0
  2  9  1  0
  5  9  1  0
  7 10  1  0
  4 11  1  0
 10 11  2  0
 10 12  1  0
 12 13  1  0
 12 14  2  0
M  END
$$$$

     RDKit          3D

 14 15  0  0  0  0  0  0  0  0999 V2000
  140.3038  150.2150  139.4785 Cl  0  0  0  0  0  0  0  0  0  0  0  0
  138.6786  150.1874  140.5317 C   0  0  0  0  0  0  0  0  0  0  0  0
  137.6385  149.3840  140.0946 C   0  0  0  0  0  0  0  0  0  0  0  0
  138.7506  150.9507  141.6713 C   0  0  0  0  0  0  0  0  0  0  0  0
  136.5527  149.6212  140.7745 C   0  0  0  0  0  0  0  0  0  0  0  0
  135.2919  149.0327  140.1418 C   0  0  0  0  0  0  0  0  0  0  0  0
  136.5287  150.4782  141.8364 C   0  0  0  0  0  0  0  0  0  0  0  0
  135.3193  150.6924  142.7156 C   0  0  0  0  0  0  0  0  0  0  0  0
  135.7668  151.4926  143.9256 C   0  0  0  0  0  0  0  0  0  0  0  0
  137.7598  151.1044  142.3481 C   0  0  0  0  0  0  0  0  0  0  0  0
  137.6868  151.8625  143.6418 S   0  0  0  0  0  0  0  0  0  0  0  0
  134.3772  151.5932  144.8401 Cl  0  0  0  0  0  0  0  0  0  0  0  0
  136.6399  152.0865  144.5531 C   0  0  0  0  0  0  0  0  0  0  0  0
  139.2917  152.3663  143.9602 O   0  0  0  0  0  0  0  0  0  0  0  0
  1  2  1  0
  2  3  2  0
  2  4  1  0
  3  5  1  0
  5  6  1  0
  5  7  2  0
  7  8  1  0
  8  9  2  0
  4 10  2  0
  7 10  1  0
 10 11  1  0
  9 12  1  0
  9 13  1  0
 11 13  3  0
 11 14  1  0
M  END
$$$$

     RDKit          3D

 14 15  0  0  0  0  0  0  0  0999 V2000
  140.3038  150.2150  139.4785 Cl  0  0  0  0  0  0  0  0  0  0  0  0
  138.6786  150.1874  140.5317 C   0  0  0  0  0  0  0  0  0  0  0  0
  137.6385  149.3840  140.0946 C   0  0  0  0  0  0  0  0  0  0  0  0
  139.0347  150.8837  141.6176 C   0  0  0  0  0  0  0  0  0  0  0  0
  136.4870  149.4739  141.0114 C   0  0  0  0  0  0  0  0  0  0  0  0
  136.6060  150.3319  142.1494 C   0  0  0  0  0  0  0  0  0  0  0  0
  135.4599  150.4857  143.0766 C   0  0  0  0  0  0  0  0  0  0  0  0
  135.8731  151.2537  144.3106 C   0  0  0  0  0  0  0  0  0  0  0  0
  137.1297  151.3206  144.7078 C   0  0  0  0  0  0  0  0  0  0  0  0
  137.9678  150.9688  142.5208 C   0  0  0  0  0  0  0  0  0  0  0  0
  138.1096  151.5072  143.8984 C   0  0  0  0  0  0  0  0  0  0  0  0
  135.2270  151.5969  145.6499 C   0  0  0  0  0  0  0  0  0  0  0  0
  134.7370  151.1109  146.4100 O   0  0  0  0  0  0  0  0  0  0  0  0
  135.4088  153.0103  145.5110 O   0  0  0  0  0  0  0  0  0  0  0  0
  1  2  1  0
  2  3  2  0
  2  4  1  0
  3  5  1  0
  5  6  2  0
  6  7  1  0
  7  8  1  0
  8  9  1  0
  4 10  2  0
  6 10  1  0
  9 11  1  0
 10 11  1  0
  8 12  1  0
 12 13  2  0
 12 14  1  0
M  END
$$$$

     RDKit          3D

 15 16  0  0  0  0  0  0  0  0999 V2000
  140.3038  150.2150  139.4785 Cl  0  0  0  0  0  0  0  0  0  0  0  0
  138.6786  150.1874  140.5317 C   0  0  0  0  0  0  0  0  0  0  0  0
  137.6385  149.3840  140.0946 C   0  0  0  0  0  0  0  0  0  0  0  0
  138.7506  150.9507  141.6713 C   0  0  0  0  0  0  0  0  0  0  0  0
  136.5527  149.6212  140.7745 C   0  0  0  0  0  0  0  0  0  0  0  0
  135.2919  149.0327  140.1418 C   0  0  0  0  0  0  0  0  0  0  0  0
  136.5287  150.4782  141.8364 C   0  0  0  0  0  0  0  0  0  0  0  0
  135.3193  150.6924  142.7156 C   0  0  0  0  0  0  0  0  0  0  0  0
  135.8151  151.3358  144.0288 C   0  0  0  0  0  0  0  0  0  0  0  0
  137.7454  151.0900  142.3267 C   0  0  0  0  0  0  0  0  0  0  0  0
  135.2438  151.1717  145.2002 C   0  0  0  0  0  0  0  0  0  0  0  0
  136.8017  152.3192  144.0193 C   0  0  0  0  0  0  0  0  0  0  0  0
  134.1499  150.4133  145.5603 C   0  0  0  0  0  0  0  0  0  0  0  0
  137.8853  152.0963  143.4214 N   0  0  0  0  0  0  0  0  0  0  0  0
  135.8813  151.9736  146.3780 C   0  0  0  0  0  0  0  0  0  0  0  0
  1  2  1  0
  2  3  2  0
  2  4  1  0
  3  5  1  0
  5  6  1  0
  5  7  2  0
  7  8  1  0
  8  9  1  0
  4 10  2  0
  7 10  1  0
  9 11  2  3
  9 12  1  0
 11 13  1  0
 10 14  1  0
 12 14  2  0
 11 15  1  0
M  END
$$$$

     RDKit          3D

 15 16  0  0  0  0  0  0  0  0999 V2000
  138.9705  151.3131  142.5679 C   0  0  0  0  0  0  0  0  0  0  0  0
  138.6042  152.0888  143.2654 C   0  0  0  0  0  0  0  0  0  0  0  0
  137.4887  151.7640  144.1910 C   0  0  0  0  0  0  0  0  0  0  0  0
  137.1673  150.4135  144.2710 C   0  0  0  0  0  0  0  0  0  0  0  0
  136.7837  152.6380  145.0886 C   0  0  0  0  0  0  0  0  0  0  0  0
  138.5889  149.8386  142.4057 C   0  0  0  0  0  0  0  0  0  0  0  0
  137.0939  153.8636  145.1629 C   0  0  0  0  0  0  0  0  0  0  0  0
  139.0958  149.0319  141.4957 C   0  0  0  0  0  0  0  0  0  0  0  0
  135.6368  152.1771  145.3913 C   0  0  0  0  0  0  0  0  0  0  0  0
  135.3317  150.8634  145.3879 C   0  0  0  0  0  0  0  0  0  0  0  0
  139.4080  149.6929  140.2383 C   0  0  0  0  0  0  0  0  0  0  0  0
  134.7492  153.1433  145.9026 C   0  0  0  0  0  0  0  0  0  0  0  0
  140.1218  149.0583  139.2218 C   0  0  0  0  0  0  0  0  0  0  0  0
  137.4798  149.5376  143.3475 N   0  0  0  0  0  0  0  0  0  0  0  0
  136.4672  149.8399  145.1876 N   0  0  0  0  0  0  0  0  0  0  0  0
  1  2  1  0
  2  3  2  0
  3  4  1  0
  3  5  1  0
  1  6  2  0
  5  7  1  0
  6  8  1  0
  5  9  2  0
  9 10  1  0
  8 11  2  3
  9 12  1  0
 11 13  1  0
  4 14  1  0
  6 14  1  0
  4 15  1  0
 10 15  1  0
M  END
$$$$

     RDKit          3D

 15 16  0  0  0  0  0  0  0  0999 V2000
  138.9705  151.3131  142.5679 C   0  0  0  0  0  0  0  0  0  0  0  0
  138.6042  152.0888  143.2654 C   0  0  0  0  0  0  0  0  0  0  0  0
  137.4887  151.7640  144.1910 C   0  0  0  0  0  0  0  0  0  0  0  0
  137.1673  150.4135  144.2710 C   0  0  0  0  0  0  0  0  0  0  0  0
  136.7837  152.6380  145.0886 C   0  0  0  0  0  0  0  0  0  0  0  0
  138.5889  149.8386  142.4057 C   0  0  0  0  0  0  0  0  0  0  0  0
  137.0939  153.8636  145.1629 C   0  0  0  0  0  0  0  0  0  0  0  0
  139.0958  149.0319  141.4957 C   0  0  0  0  0  0  0  0  0  0  0  0
  135.6368  152.1771  145.3913 C   0  0  0  0  0  0  0  0  0  0  0  0
  135.3317  150.8634  145.3879 C   0  0  0  0  0  0  0  0  0  0  0  0
  139.4080  149.6929  140.2383 C   0  0  0  0  0  0  0  0  0  0  0  0
  134.7492  153.1433  145.9026 C   0  0  0  0  0  0  0  0  0  0  0  0
  137.5008  149.5309  143.3440 N   0  0  0  0  0  0  0  0  0  0  0  0
  139.5289  149.0785  139.0397 C   0  0  0  0  0  0  0  0  0  0  0  0
  136.3549  149.9595  145.0905 N   0  0  0  0  0  0  0  0  0  0  0  0
  1  2  1  0
  2  3  2  0
  3  4  1  0
  3  5  1  0
  1  6  2  0
  5  7  1  0
  6  8  1  0
  5  9  2  0
  9 10  1  0
  8 11  2  3
  9 12  1  0
  4 13  2  0
  6 13  1  0
 11 14  1  0
  4 15  1  0
 10 15  2  0
M  END
$$$$

     RDKit          3D

 15 16  0  0  0  0  0  0  0  0999 V2000
  139.3423  149.9928  140.5892 C   0  0  0  0  0  0  0  0  0  0  0  0
  138.9530  149.9232  139.3662 C   0  0  0  0  0  0  0  0  0  0  0  0
  138.6126  150.1100  141.6424 C   0  0  0  0  0  0  0  0  0  0  0  0
  137.1875  149.8648  141.8313 C   0  0  0  0  0  0  0  0  0  0  0  0
  136.5143  149.7627  140.5785 C   0  0  0  0  0  0  0  0  0  0  0  0
  139.1751  150.3995  143.1329 C   0  0  0  0  0  0  0  0  0  0  0  0
  138.2221  150.9725  144.0846 C   0  0  0  0  0  0  0  0  0  0  0  0
  139.6660  149.8809  138.1670 C   0  0  0  0  0  0  0  0  0  0  0  0
  136.9203  150.8967  143.8605 C   0  0  0  0  0  0  0  0  0  0  0  0
  136.2679  150.3845  142.9227 C   0  0  0  0  0  0  0  0  0  0  0  0
  136.1231  151.4566  145.0844 C   0  0  0  0  0  0  0  0  0  0  0  0
  136.5079  151.6589  146.3018 C   0  0  0  0  0  0  0  0  0  0  0  0
  135.2049  149.4984  140.4267 C   0  0  0  0  0  0  0  0  0  0  0  0
  135.2055  152.2899  144.9722 C   0  0  0  0  0  0  0  0  0  0  0  0
  137.3765  149.6540  139.3449 C   0  0  0  0  0  0  0  0  0  0  0  0
  1  2  2  0
  1  3  1  0
  3  4  1  0
  4  5  2  0
  3  6  1  0
  6  7  2  0
  2  8  1  0
  7  9  1  0
  4 10  1  0
  9 10  2  0
  9 11  1  0
 11 12  1  0
  5 13  1  0
 11 14  2  0
  2 15  1  0
  5 15  1  0
M  END
$$$$

     RDKit          3D

 15 16  0  0  0  0  0  0  0  0999 V2000
  138.9705  151.3131  142.5679 C   0  0  0  0  0  0  0  0  0  0  0  0
  138.6042  152.0888  143.2654 C   0  0  0  0  0  0  0  0  0  0  0  0
  137.4887  151.7640  144.1910 C   0  0  0  0  0  0  0  0  0  0  0  0
  137.1673  150.4135  144.2710 C   0  0  0  0  0  0  0  0  0  0  0  0
  136.7837  152.6380  145.0886 C   0  0  0  0  0  0  0  0  0  0  0  0
  138.5889  149.8386  142.4057 C   0  0  0  0  0  0  0  0  0  0  0  0
  137.0939  153.8636  145.1629 C   0  0  0  0  0  0  0  0  0  0  0  0
  139.0958  149.0319  141.4957 C   0  0  0  0  0  0  0  0  0  0  0  0
  138.9655  149.3989  140.0909 C   0  0  0  0  0  0  0  0  0  0  0  0
  135.6272  152.1482  145.6705 C   0  0  0  0  0  0  0  0  0  0  0  0
  135.4044  150.8287  145.6572 C   0  0  0  0  0  0  0  0  0  0  0  0
  137.5699  149.5354  143.3308 N   0  0  0  0  0  0  0  0  0  0  0  0
  139.4181  150.3514  139.5313 C   0  0  0  0  0  0  0  0  0  0  0  0
  135.0544  153.2417  146.3026 C   0  0  0  0  0  0  0  0  0  0  0  0
  136.1270  150.0298  145.1076 N   0  0  0  0  0  0  0  0  0  0  0  0
  1  2  1  0
  2  3  2  0
  3  4  1  0
  3  5  1  0
  1  6  2  0
  5  7  1  0
  6  8  1  0
  8  9  1  0
  5 10  2  0
 10 11  1  0
  4 12  1  0
  6 12  1  0
  9 13  2  0
 10 14  1  0
  4 15  2  0
 11 15  1  0
M  END
$$$$

     RDKit          3D

 15 16  0  0  0  0  0  0  0  0999 V2000
  138.9705  151.3131  142.5679 C   0  0  0  0  0  0  0  0  0  0  0  0
  138.6042  152.0888  143.2654 C   0  0  0  0  0  0  0  0  0  0  0  0
  137.4887  151.7640  144.1910 C   0  0  0  0  0  0  0  0  0  0  0  0
  137.1673  150.4135  144.2710 C   0  0  0  0  0  0  0  0  0  0  0  0
  136.7837  152.6380  145.0886 C   0  0  0  0  0  0  0  0  0  0  0  0
  138.5889  149.8386  142.4057 C   0  0  0  0  0  0  0  0  0  0  0  0
  137.0939  153.8636  145.1629 C   0  0  0  0  0  0  0  0  0  0  0  0
  139.0958  149.0319  141.4957 C   0  0  0  0  0  0  0  0  0  0  0  0
  138.9655  149.3989  140.0909 C   0  0  0  0  0  0  0  0  0  0  0  0
  135.6339  152.1940  145.3963 C   0  0  0  0  0  0  0  0  0  0  0  0
  135.3253  150.8781  145.4110 C   0  0  0  0  0  0  0  0  0  0  0  0
  134.7594  153.1602  145.9076 C   0  0  0  0  0  0  0  0  0  0  0  0
  137.5724  149.5306  143.3204 N   0  0  0  0  0  0  0  0  0  0  0  0
  139.4257  150.3555  139.5356 C   0  0  0  0  0  0  0  0  0  0  0  0
  136.0830  149.9169  145.0259 C   0  0  0  0  0  0  0  0  0  0  0  0
  1  2  1  0
  2  3  2  0
  3  4  1  0
  3  5  1  0
  1  6  2  0
  5  7  1  0
  6  8  1  0
  8  9  1  0
  5 10  2  0
 10 11  1  0
 10 12  1  0
  4 13  1  0
  6 13  1  0
  9 14  2  0
  4 15  1  0
 11 15  1  0
M  END
$$$$

     RDKit          3D

 15 16  0  0  0  0  0  0  0  0999 V2000
  139.3423  149.9928  140.5892 C   0  0  0  0  0  0  0  0  0  0  0  0
  138.9530  149.9232  139.3662 C   0  0  0  0  0  0  0  0  0  0  0  0
  138.6126  150.1100  141.6424 C   0  0  0  0  0  0  0  0  0  0  0  0
  137.1875  149.8648  141.8313 C   0  0  0  0  0  0  0  0  0  0  0  0
  136.5143  149.7627  140.5785 C   0  0  0  0  0  0  0  0  0  0  0  0
  139.1422  150.4925  143.0862 C   0  0  0  0  0  0  0  0  0  0  0  0
  138.1958  151.0001  144.0544 C   0  0  0  0  0  0  0  0  0  0  0  0
  136.7353  150.3949  143.0646 C   0  0  0  0  0  0  0  0  0  0  0  0
  135.1509  149.5438  140.5010 C   0  0  0  0  0  0  0  0  0  0  0  0
  137.0479  150.7366  144.0791 C   0  0  0  0  0  0  0  0  0  0  0  0
  136.2437  151.3811  145.2333 C   0  0  0  0  0  0  0  0  0  0  0  0
  136.6210  151.6820  146.4242 C   0  0  0  0  0  0  0  0  0  0  0  0
  135.2867  152.0399  144.8283 C   0  0  0  0  0  0  0  0  0  0  0  0
  139.7117  149.9092  138.2051 C   0  0  0  0  0  0  0  0  0  0  0  0
  137.4068  149.6689  139.2933 C   0  0  0  0  0  0  0  0  0  0  0  0
  1  2  2  0
  1  3  1  0
  3  4  1  0
  4  5  2  0
  3  6  1  0
  6  7  2  0
  4  8  1  0
  5  9  1  0
  7 10  1  0
  8 10  2  0
 10 11  1  0
 11 12  1  0
 11 13  1  0
  2 14  1  0
  2 15  1  0
  5 15  1  0
M  END
$$$$

     RDKit          3D

 15 16  0  0  0  0  0  0  0  0999 V2000
  139.5546  150.5070  140.4440 C   0  0  0  0  0  0  0  0  0  0  0  0
  139.2168  150.0150  139.3722 C   0  0  0  0  0  0  0  0  0  0  0  0
  138.8581  150.3073  141.5852 C   0  0  0  0  0  0  0  0  0  0  0  0
  137.9799  149.2986  139.2370 C   0  0  0  0  0  0  0  0  0  0  0  0
  137.1575  149.1630  140.3909 C   0  0  0  0  0  0  0  0  0  0  0  0
  139.3383  150.9197  142.9169 C   0  0  0  0  0  0  0  0  0  0  0  0
  138.3080  151.0871  143.9346 C   0  0  0  0  0  0  0  0  0  0  0  0
  135.7334  148.7642  140.2438 C   0  0  0  0  0  0  0  0  0  0  0  0
  137.1254  150.5266  143.5545 C   0  0  0  0  0  0  0  0  0  0  0  0
  137.4926  149.8038  141.6077 C   0  0  0  0  0  0  0  0  0  0  0  0
  136.1224  150.7843  144.7051 C   0  0  0  0  0  0  0  0  0  0  0  0
  136.0074  152.0070  145.2157 C   0  0  0  0  0  0  0  0  0  0  0  0
  136.9747  152.9336  144.9562 C   0  0  0  0  0  0  0  0  0  0  0  0
  136.9489  150.0233  142.4539 N   0  0  0  0  0  0  0  0  0  0  0  0
  135.1706  152.2343  146.1224 O   0  0  0  0  0  0  0  0  0  0  0  0
  1  2  2  0
  1  3  1  0
  2  4  1  0
  4  5  2  0
  3  6  1  0
  6  7  2  0
  5  8  1  0
  7  9  1  0
  3 10  2  0
  5 10  1  0
  9 11  1  0
 11 12  1  0
 12 13  1  0
  9 14  2  0
 10 14  1  0
 12 15  2  0
M  END
$$$$

     RDKit          3D

 15 16  0  0  0  0  0  0  0  0999 V2000
  138.9705  151.3131  142.5679 C   0  0  0  0  0  0  0  0  0  0  0  0
  138.6042  152.0888  143.2654 C   0  0  0  0  0  0  0  0  0  0  0  0
  137.6600  151.8318  144.0475 C   0  0  0  0  0  0  0  0  0  0  0  0
  136.5825  152.7511  144.5734 C   0  0  0  0  0  0  0  0  0  0  0  0
  135.5827  152.5121  145.5093 C   0  0  0  0  0  0  0  0  0  0  0  0
  139.9322  151.4080  141.3737 C   0  0  0  0  0  0  0  0  0  0  0  0
  135.6283  151.0416  145.7979 C   0  0  0  0  0  0  0  0  0  0  0  0
  137.2911  150.5061  144.5502 C   0  0  0  0  0  0  0  0  0  0  0  0
  139.6740  150.6670  140.2600 C   0  0  0  0  0  0  0  0  0  0  0  0
  134.5974  150.7455  146.8356 C   0  0  0  0  0  0  0  0  0  0  0  0
  136.4551  150.0956  145.3564 C   0  0  0  0  0  0  0  0  0  0  0  0
  138.4929  149.9508  140.2321 C   0  0  0  0  0  0  0  0  0  0  0  0
  137.5519  149.7916  141.3176 C   0  0  0  0  0  0  0  0  0  0  0  0
  137.9140  150.4380  142.4946 C   0  0  0  0  0  0  0  0  0  0  0  0
  138.0491  149.3451  138.9141 C   0  0  0  0  0  0  0  0  0  0  0  0
  1  2  2  3
  2  3  1  0
  3  4  1  0
  4  5  2  0
  1  6  1  0
  5  7  1  0
  3  8  2  0
  6  9  2  0
  7 10  1  0
  7 11  2  0
  8 11  1  0
  9 12  1  0
 12 13  1  0
  1 14  1  0
 13 14  2  0
 12 15  1  0
M  END
$$$$

     RDKit          3D

 15 16  0  0  0  0  0  0  0  0999 V2000
  138.9705  151.3131  142.5679 C   0  0  0  0  0  0  0  0  0  0  0  0
  138.6042  152.0888  143.2654 C   0  0  0  0  0  0  0  0  0  0  0  0
  137.4887  151.7640  144.1910 C   0  0  0  0  0  0  0  0  0  0  0  0
  137.1673  150.4135  144.2710 C   0  0  0  0  0  0  0  0  0  0  0  0
  136.7837  152.6380  145.0886 C   0  0  0  0  0  0  0  0  0  0  0  0
  138.5889  149.8386  142.4057 C   0  0  0  0  0  0  0  0  0  0  0  0
  137.0939  153.8636  145.1629 C   0  0  0  0  0  0  0  0  0  0  0  0
  139.0958  149.0319  141.4957 C   0  0  0  0  0  0  0  0  0  0  0  0
  138.9655  149.3989  140.0909 C   0  0  0  0  0  0  0  0  0  0  0  0
  135.6272  152.1482  145.6705 C   0  0  0  0  0  0  0  0  0  0  0  0
  135.4044  150.8287  145.6572 C   0  0  0  0  0  0  0  0  0  0  0  0
  137.5699  149.5354  143.3308 C   0  0  0  0  0  0  0  0  0  0  0  0
  136.0810  149.9369  145.1030 C   0  0  0  0  0  0  0  0  0  0  0  0
  134.9938  153.2581  146.3753 C   0  0  0  0  0  0  0  0  0  0  0  0
  139.3989  150.3921  139.5556 C   0  0  0  0  0  0  0  0  0  0  0  0
  1  2  1  0
  2  3  2  0
  3  4  1  0
  3  5  1  0
  1  6  2  0
  5  7  1  0
  6  8  1  0
  8  9  1  0
  5 10  2  0
 10 11  1  0
  4 12  1  0
  6 12  1  0
  4 13  2  0
 11 13  1  0
 10 14  1  0
  9 15  2  0
M  END
$$$$

     RDKit          3D

 15 17  0  0  0  0  0  0  0  0999 V2000
  139.5546  150.5070  140.4440 C   0  0  0  0  0  0  0  0  0  0  0  0
  139.2168  150.0150  139.3722 C   0  0  0  0  0  0  0  0  0  0  0  0
  138.8581  150.3073  141.5852 C   0  0  0  0  0  0  0  0  0  0  0  0
  139.2290  150.3516  142.8905 C   0  0  0  0  0  0  0  0  0  0  0  0
  138.3519  151.0008  143.9747 C   0  0  0  0  0  0  0  0  0  0  0  0
  137.3998  151.4263  143.6194 C   0  0  0  0  0  0  0  0  0  0  0  0
  136.5329  152.2351  144.5998 C   0  0  0  0  0  0  0  0  0  0  0  0
  136.9653  151.2809  142.2541 C   0  0  0  0  0  0  0  0  0  0  0  0
  137.7067  150.6216  141.4269 C   0  0  0  0  0  0  0  0  0  0  0  0
  136.9211  153.4568  145.0572 C   0  0  0  0  0  0  0  0  0  0  0  0
  135.6699  151.7277  145.3014 C   0  0  0  0  0  0  0  0  0  0  0  0
  137.8081  149.9498  139.0347 C   0  0  0  0  0  0  0  0  0  0  0  0
  136.7180  150.2312  140.3145 C   0  0  0  0  0  0  0  0  0  0  0  0
  135.1775  152.4209  146.2318 C   0  0  0  0  0  0  0  0  0  0  0  0
  136.0848  153.8590  146.1401 C   0  0  0  0  0  0  0  0  0  0  0  0
  1  2  2  0
  1  3  1  0
  3  4  1  0
  4  5  2  0
  5  6  1  0
  6  7  1  0
  6  8  2  0
  3  9  2  0
  8  9  1  0
  7 10  1  0
  7 11  2  0
  2 12  1  0
  9 13  1  0
 12 13  1  0
 11 14  1  0
 10 15  1  0
 14 15  1  0
M  END
$$$$

     RDKit          3D

 15 17  0  0  0  0  0  0  0  0999 V2000
  139.5546  150.5070  140.4440 C   0  0  0  0  0  0  0  0  0  0  0  0
  139.2168  150.0150  139.3722 C   0  0  0  0  0  0  0  0  0  0  0  0
  138.8581  150.3073  141.5852 C   0  0  0  0  0  0  0  0  0  0  0  0
  139.2290  150.3516  142.8905 C   0  0  0  0  0  0  0  0  0  0  0  0
  138.3519  151.0008  143.9747 C   0  0  0  0  0  0  0  0  0  0  0  0
  137.3998  151.4263  143.6194 C   0  0  0  0  0  0  0  0  0  0  0  0
  136.5329  152.2351  144.5998 C   0  0  0  0  0  0  0  0  0  0  0  0
  136.9653  151.2809  142.2541 C   0  0  0  0  0  0  0  0  0  0  0  0
  137.7067  150.6216  141.4269 C   0  0  0  0  0  0  0  0  0  0  0  0
  136.9211  153.4568  145.0572 C   0  0  0  0  0  0  0  0  0  0  0  0
  135.6699  151.7277  145.3014 C   0  0  0  0  0  0  0  0  0  0  0  0
  137.8081  149.9498  139.0347 C   0  0  0  0  0  0  0  0  0  0  0  0
  136.7180  150.2312  140.3145 C   0  0  0  0  0  0  0  0  0  0  0  0
  135.1775  152.4209  146.2318 C   0  0  0  0  0  0  0  0  0  0  0  0
  135.8187  153.6106  146.3735 C   0  0  0  0  0  0  0  0  0  0  0  0
  1  2  2  0
  1  3  1  0
  3  4  1  0
  4  5  2  0
  5  6  1  0
  6  7  1  0
  6  8  2  0
  3  9  2  0
  8  9  1  0
  7 10  1  0
  7 11  2  0
  2 12  1  0
  9 13  1  0
 12 13  1  0
 11 14  1  0
 10 15  1  0
 14 15  2  0
M  END
$$$$

     RDKit          3D

 15 16  0  0  0  0  0  0  0  0999 V2000
  139.3423  149.9928  140.5892 C   0  0  0  0  0  0  0  0  0  0  0  0
  138.9530  149.9232  139.3662 C   0  0  0  0  0  0  0  0  0  0  0  0
  138.6126  150.1100  141.6424 C   0  0  0  0  0  0  0  0  0  0  0  0
  137.1875  149.8648  141.8313 C   0  0  0  0  0  0  0  0  0  0  0  0
  136.5143  149.7627  140.5785 C   0  0  0  0  0  0  0  0  0  0  0  0
  139.1751  150.3995  143.1329 C   0  0  0  0  0  0  0  0  0  0  0  0
  138.3315  151.1461  143.8950 C   0  0  0  0  0  0  0  0  0  0  0  0
  135.0981  149.6674  140.3637 C   0  0  0  0  0  0  0  0  0  0  0  0
  139.6837  149.8630  138.1743 C   0  0  0  0  0  0  0  0  0  0  0  0
  137.0153  151.0564  144.0316 C   0  0  0  0  0  0  0  0  0  0  0  0
  136.3187  151.4986  145.1678 C   0  0  0  0  0  0  0  0  0  0  0  0
  137.3768  149.7032  139.2571 C   0  0  0  0  0  0  0  0  0  0  0  0
  136.3955  150.2114  142.9581 N   0  0  0  0  0  0  0  0  0  0  0  0
  136.7721  151.8413  146.2797 O   0  0  0  0  0  0  0  0  0  0  0  0
  134.9809  151.7506  145.0998 O   0  0  0  0  0  0  0  0  0  0  0  0
  1  2  2  0
  1  3  1  0
  3  4  1  0
  4  5  2  0
  3  6  1  0
  6  7  2  0
  5  8  1  0
  2  9  1  0
  7 10  1  0
 10 11  1  0
  2 12  1  0
  5 12  1  0
  4 13  1  0
 10 13  2  0
 11 14  2  0
 11 15  1  0
M  END
$$$$

     RDKit          3D

 15 16  0  0  0  0  0  0  0  0999 V2000
  140.3038  150.2150  139.4785 Cl  0  0  0  0  0  0  0  0  0  0  0  0
  138.6786  150.1874  140.5317 C   0  0  0  0  0  0  0  0  0  0  0  0
  137.6385  149.3840  140.0946 C   0  0  0  0  0  0  0  0  0  0  0  0
  139.2404  150.7160  141.5759 C   0  0  0  0  0  0  0  0  0  0  0  0
  138.3592  151.0512  142.3776 C   0  0  0  0  0  0  0  0  0  0  0  0
  136.9526  150.5124  142.2952 C   0  0  0  0  0  0  0  0  0  0  0  0
  138.4072  151.7168  143.9009 C   0  0  0  0  0  0  0  0  0  0  0  0
  137.3935  148.7832  139.0047 C   0  0  0  0  0  0  0  0  0  0  0  0
  135.9042  150.8550  143.2900 C   0  0  0  0  0  0  0  0  0  0  0  0
  136.2681  151.2342  144.5831 C   0  0  0  0  0  0  0  0  0  0  0  0
  135.2221  151.2812  145.5804 C   0  0  0  0  0  0  0  0  0  0  0  0
  134.1739  150.7811  145.8228 C   0  0  0  0  0  0  0  0  0  0  0  0
  136.5348  149.9755  141.0417 C   0  0  0  0  0  0  0  0  0  0  0  0
  137.6335  151.6957  144.9219 C   0  0  0  0  0  0  0  0  0  0  0  0
  135.7645  152.3241  146.5238 C   0  0  0  0  0  0  0  0  0  0  0  0
  1  2  1  0
  2  3  1  0
  2  4  2  0
  4  5  1  0
  5  6  2  0
  5  7  1  0
  3  8  1  0
  6  9  1  0
  9 10  2  0
 10 11  1  0
 11 12  2  0
  3 13  2  0
  6 13  1  0
  7 14  1  0
 10 14  1  0
 11 15  1  0
M  END
$$$$

     RDKit          3D

 15 16  0  0  0  0  0  0  0  0999 V2000
  139.3423  149.9928  140.5892 C   0  0  0  0  0  0  0  0  0  0  0  0
  138.9530  149.9232  139.3662 C   0  0  0  0  0  0  0  0  0  0  0  0
  138.6126  150.1100  141.6424 C   0  0  0  0  0  0  0  0  0  0  0  0
  137.1875  149.8648  141.8313 C   0  0  0  0  0  0  0  0  0  0  0  0
  136.5143  149.7627  140.5785 C   0  0  0  0  0  0  0  0  0  0  0  0
  139.1751  150.3995  143.1329 C   0  0  0  0  0  0  0  0  0  0  0  0
  138.2221  150.9725  144.0846 C   0  0  0  0  0  0  0  0  0  0  0  0
  139.6660  149.8809  138.1670 C   0  0  0  0  0  0  0  0  0  0  0  0
  136.9203  150.8967  143.8605 C   0  0  0  0  0  0  0  0  0  0  0  0
  136.9668  149.6661  139.2303 C   0  0  0  0  0  0  0  0  0  0  0  0
  136.2745  150.3051  142.8110 C   0  0  0  0  0  0  0  0  0  0  0  0
  138.0419  149.7656  138.6699 C   0  0  0  0  0  0  0  0  0  0  0  0
  136.1169  151.4375  145.0534 C   0  0  0  0  0  0  0  0  0  0  0  0
  136.4312  151.5039  146.2907 C   0  0  0  0  0  0  0  0  0  0  0  0
  135.2705  152.3767  144.9350 C   0  0  0  0  0  0  0  0  0  0  0  0
  1  2  2  0
  1  3  1  0
  3  4  1  0
  4  5  2  0
  3  6  1  0
  6  7  2  0
  2  8  1  0
  7  9  1  0
  5 10  1  0
  4 11  1  0
  9 11  2  0
  2 12  1  0
 10 12  2  0
  9 13  1  0
 13 14  1  0
 13 15  1  0
M  END
$$$$

     RDKit          3D

 15 16  0  0  0  0  0  0  0  0999 V2000
  138.9705  151.3131  142.5679 C   0  0  0  0  0  0  0  0  0  0  0  0
  138.6042  152.0888  143.2654 C   0  0  0  0  0  0  0  0  0  0  0  0
  137.4887  151.7640  144.1910 C   0  0  0  0  0  0  0  0  0  0  0  0
  137.1673  150.4135  144.2710 C   0  0  0  0  0  0  0  0  0  0  0  0
  136.7837  152.6380  145.0886 C   0  0  0  0  0  0  0  0  0  0  0  0
  138.5889  149.8386  142.4057 C   0  0  0  0  0  0  0  0  0  0  0  0
  137.0939  153.8636  145.1629 C   0  0  0  0  0  0  0  0  0  0  0  0
  139.0958  149.0319  141.4957 C   0  0  0  0  0  0  0  0  0  0  0  0
  135.6368  152.1771  145.3913 C   0  0  0  0  0  0  0  0  0  0  0  0
  135.3317  150.8634  145.3879 C   0  0  0  0  0  0  0  0  0  0  0  0
  139.4080  149.6929  140.2383 C   0  0  0  0  0  0  0  0  0  0  0  0
  134.7492  153.1433  145.9026 C   0  0  0  0  0  0  0  0  0  0  0  0
  140.1218  149.0583  139.2218 C   0  0  0  0  0  0  0  0  0  0  0  0
  137.4798  149.5376  143.3475 N   0  0  0  0  0  0  0  0  0  0  0  0
  136.4672  149.8399  145.1876 N   0  0  0  0  0  0  0  0  0  0  0  0
  1  2  1  0
  2  3  2  0
  3  4  1  0
  3  5  1  0
  1  6  2  0
  5  7  1  0
  6  8  1  0
  5  9  2  0
  9 10  1  0
  8 11  2  3
  9 12  1  0
 11 13  1  0
  4 14  1  0
  6 14  1  0
  4 15  2  0
 10 15  1  0
M  END
$$$$

     RDKit          3D

 15 16  0  0  0  0  0  0  0  0999 V2000
  140.3038  150.2150  139.4785 Cl  0  0  0  0  0  0  0  0  0  0  0  0
  138.6786  150.1874  140.5317 C   0  0  0  0  0  0  0  0  0  0  0  0
  137.6385  149.3840  140.0946 C   0  0  0  0  0  0  0  0  0  0  0  0
  138.7506  150.9507  141.6713 C   0  0  0  0  0  0  0  0  0  0  0  0
  136.5527  149.6212  140.7745 C   0  0  0  0  0  0  0  0  0  0  0  0
  135.2919  149.0327  140.1418 C   0  0  0  0  0  0  0  0  0  0  0  0
  136.5287  150.4782  141.8364 C   0  0  0  0  0  0  0  0  0  0  0  0
  135.3193  150.6924  142.7156 C   0  0  0  0  0  0  0  0  0  0  0  0
  135.8151  151.3358  144.0288 C   0  0  0  0  0  0  0  0  0  0  0  0
  137.7454  151.0900  142.3267 C   0  0  0  0  0  0  0  0  0  0  0  0
  135.2438  151.1717  145.2002 C   0  0  0  0  0  0  0  0  0  0  0  0
  136.7790  152.2275  143.9150 C   0  0  0  0  0  0  0  0  0  0  0  0
  134.1410  150.4924  145.6148 C   0  0  0  0  0  0  0  0  0  0  0  0
  136.0650  151.9153  146.3075 C   0  0  0  0  0  0  0  0  0  0  0  0
  138.0293  151.8583  143.3429 N   0  0  0  0  0  0  0  0  0  0  0  0
  1  2  1  0
  2  3  2  0
  2  4  1  0
  3  5  1  0
  5  6  1  0
  5  7  2  0
  7  8  1  0
  8  9  1  0
  4 10  2  0
  7 10  1  0
  9 11  2  3
  9 12  1  0
 11 13  1  0
 11 14  1  0
 10 15  1  0
 12 15  1  0
M  END
$$$$

     RDKit          3D

 15 16  0  0  0  0  0  0  0  0999 V2000
  138.9705  151.3131  142.5679 C   0  0  0  0  0  0  0  0  0  0  0  0
  138.6042  152.0888  143.2654 C   0  0  0  0  0  0  0  0  0  0  0  0
  137.6600  151.8318  144.0475 C   0  0  0  0  0  0  0  0  0  0  0  0
  136.5825  152.7511  144.5734 C   0  0  0  0  0  0  0  0  0  0  0  0
  135.5827  152.5121  145.5093 C   0  0  0  0  0  0  0  0  0  0  0  0
  139.9322  151.4080  141.3737 C   0  0  0  0  0  0  0  0  0  0  0  0
  135.6283  151.0416  145.7979 C   0  0  0  0  0  0  0  0  0  0  0  0
  139.6618  150.7206  140.2290 C   0  0  0  0  0  0  0  0  0  0  0  0
  137.2798  150.4935  144.5471 C   0  0  0  0  0  0  0  0  0  0  0  0
  136.3854  150.1314  145.4417 C   0  0  0  0  0  0  0  0  0  0  0  0
  138.4722  150.0213  140.1853 C   0  0  0  0  0  0  0  0  0  0  0  0
  137.5144  149.8046  141.2135 C   0  0  0  0  0  0  0  0  0  0  0  0
  137.8650  150.2834  142.2108 C   0  0  0  0  0  0  0  0  0  0  0  0
  138.1378  149.3958  138.8345 C   0  0  0  0  0  0  0  0  0  0  0  0
  137.3282  148.4147  138.5953 C   0  0  0  0  0  0  0  0  0  0  0  0
  1  2  2  3
  2  3  1  0
  3  4  1  0
  4  5  2  0
  1  6  1  0
  5  7  1  0
  6  8  2  0
  3  9  2  0
  7 10  2  0
  9 10  1  0
  8 11  1  0
 11 12  1  0
  1 13  1  0
 12 13  2  0
 11 14  2  3
 14 15  1  0
M  END
$$$$

     RDKit          3D

 15 16  0  0  0  0  0  0  0  0999 V2000
  140.3038  150.2150  139.4785 Cl  0  0  0  0  0  0  0  0  0  0  0  0
  138.6786  150.1874  140.5317 C   0  0  0  0  0  0  0  0  0  0  0  0
  137.6385  149.3840  140.0946 C   0  0  0  0  0  0  0  0  0  0  0  0
  139.2404  150.7160  141.5759 C   0  0  0  0  0  0  0  0  0  0  0  0
  138.3592  151.0512  142.3776 C   0  0  0  0  0  0  0  0  0  0  0  0
  136.9526  150.5124  142.2952 C   0  0  0  0  0  0  0  0  0  0  0  0
  138.4072  151.7168  143.9009 C   0  0  0  0  0  0  0  0  0  0  0  0
  137.3935  148.7832  139.0047 C   0  0  0  0  0  0  0  0  0  0  0  0
  135.9042  150.8550  143.2900 C   0  0  0  0  0  0  0  0  0  0  0  0
  136.2681  151.2342  144.5831 C   0  0  0  0  0  0  0  0  0  0  0  0
  135.2221  151.2812  145.5804 C   0  0  0  0  0  0  0  0  0  0  0  0
  134.1739  150.7811  145.8228 C   0  0  0  0  0  0  0  0  0  0  0  0
  136.5348  149.9755  141.0417 C   0  0  0  0  0  0  0  0  0  0  0  0
  137.6008  151.7382  144.8436 C   0  0  0  0  0  0  0  0  0  0  0  0
  135.7378  152.4746  146.3878 C   0  0  0  0  0  0  0  0  0  0  0  0
  1  2  1  0
  2  3  1  0
  2  4  2  0
  4  5  1  0
  5  6  2  0
  5  7  1  0
  3  8  1  0
  6  9  1  0
  9 10  2  0
 10 11  1  0
 11 12  2  0
  3 13  2  0
  6 13  1  0
  7 14  2  0
 10 14  1  0
 11 15  1  0
M  END
$$$$

     RDKit          3D

 15 16  0  0  0  0  0  0  0  0999 V2000
  140.3038  150.2150  139.4785 Cl  0  0  0  0  0  0  0  0  0  0  0  0
  138.6786  150.1874  140.5317 C   0  0  0  0  0  0  0  0  0  0  0  0
  137.6385  149.3840  140.0946 C   0  0  0  0  0  0  0  0  0  0  0  0
  138.7506  150.9507  141.6713 C   0  0  0  0  0  0  0  0  0  0  0  0
  136.5527  149.6212  140.7745 C   0  0  0  0  0  0  0  0  0  0  0  0
  135.2919  149.0327  140.1418 C   0  0  0  0  0  0  0  0  0  0  0  0
  136.5287  150.4782  141.8364 C   0  0  0  0  0  0  0  0  0  0  0  0
  135.3193  150.6924  142.7156 C   0  0  0  0  0  0  0  0  0  0  0  0
  135.8151  151.3358  144.0288 C   0  0  0  0  0  0  0  0  0  0  0  0
  137.7454  151.0900  142.3267 C   0  0  0  0  0  0  0  0  0  0  0  0
  135.2438  151.1717  145.2002 C   0  0  0  0  0  0  0  0  0  0  0  0
  136.7790  152.2275  143.9150 C   0  0  0  0  0  0  0  0  0  0  0  0
  135.8320  151.8041  146.3375 C   0  0  0  0  0  0  0  0  0  0  0  0
  135.1793  151.9704  147.5699 C   0  0  0  0  0  0  0  0  0  0  0  0
  137.8802  152.0785  143.4899 C   0  0  0  0  0  0  0  0  0  0  0  0
  1  2  1  0
  2  3  2  0
  2  4  1  0
  3  5  1  0
  5  6  1  0
  5  7  2  0
  7  8  1  0
  8  9  1  0
  4 10  2  0
  7 10  1  0
  9 11  2  3
  9 12  1  0
 11 13  1  0
 13 14  1  0
 10 15  1  0
 12 15  2  0
M  END
$$$$

     RDKit          3D

 15 16  0  0  0  0  0  0  0  0999 V2000
  138.9705  151.3131  142.5679 C   0  0  0  0  0  0  0  0  0  0  0  0
  138.6042  152.0888  143.2654 C   0  0  0  0  0  0  0  0  0  0  0  0
  137.6600  151.8318  144.0475 C   0  0  0  0  0  0  0  0  0  0  0  0
  136.5825  152.7511  144.5734 C   0  0  0  0  0  0  0  0  0  0  0  0
  135.5827  152.5121  145.5093 C   0  0  0  0  0  0  0  0  0  0  0  0
  139.9322  151.4080  141.3737 C   0  0  0  0  0  0  0  0  0  0  0  0
  135.6283  151.0416  145.7979 C   0  0  0  0  0  0  0  0  0  0  0  0
  137.2911  150.5061  144.5502 C   0  0  0  0  0  0  0  0  0  0  0  0
  139.6740  150.6670  140.2600 C   0  0  0  0  0  0  0  0  0  0  0  0
  134.5974  150.7455  146.8356 C   0  0  0  0  0  0  0  0  0  0  0  0
  136.4551  150.0956  145.3564 C   0  0  0  0  0  0  0  0  0  0  0  0
  138.4929  149.9508  140.2321 C   0  0  0  0  0  0  0  0  0  0  0  0
  138.1049  150.1345  142.1952 C   0  0  0  0  0  0  0  0  0  0  0  0
  138.0922  149.4474  138.8636 C   0  0  0  0  0  0  0  0  0  0  0  0
  137.7582  149.5991  141.1304 C   0  0  0  0  0  0  0  0  0  0  0  0
  1  2  2  3
  2  3  1  0
  3  4  1  0
  4  5  2  0
  1  6  1  0
  5  7  1  0
  3  8  2  0
  6  9  2  0
  7 10  1  0
  7 11  2  0
  8 11  1  0
  9 12  1  0
  1 13  1  0
 12 14  1  0
 12 15  1  0
 13 15  1  0
M  END
$$$$

     RDKit          3D

 15 16  0  0  0  0  0  0  0  0999 V2000
  139.5546  150.5070  140.4440 C   0  0  0  0  0  0  0  0  0  0  0  0
  139.2168  150.0150  139.3722 C   0  0  0  0  0  0  0  0  0  0  0  0
  138.8581  150.3073  141.5852 C   0  0  0  0  0  0  0  0  0  0  0  0
  137.9799  149.2986  139.2370 C   0  0  0  0  0  0  0  0  0  0  0  0
  137.1575  149.1630  140.3909 C   0  0  0  0  0  0  0  0  0  0  0  0
  139.3383  150.9197  142.9169 C   0  0  0  0  0  0  0  0  0  0  0  0
  138.3080  151.0871  143.9346 C   0  0  0  0  0  0  0  0  0  0  0  0
  135.7334  148.7642  140.2438 C   0  0  0  0  0  0  0  0  0  0  0  0
  137.1254  150.5266  143.5545 C   0  0  0  0  0  0  0  0  0  0  0  0
  136.0596  150.7968  144.4933 C   0  0  0  0  0  0  0  0  0  0  0  0
  137.5394  149.7776  141.5404 C   0  0  0  0  0  0  0  0  0  0  0  0
  135.9898  150.8309  145.7769 C   0  0  0  0  0  0  0  0  0  0  0  0
  136.6994  149.8393  142.6500 N   0  0  0  0  0  0  0  0  0  0  0  0
  135.0037  151.5424  146.6335 C   0  0  0  0  0  0  0  0  0  0  0  0
  134.5017  152.5295  146.0098 C   0  0  0  0  0  0  0  0  0  0  0  0
  1  2  2  0
  1  3  1  0
  2  4  1  0
  4  5  2  0
  3  6  1  0
  6  7  2  0
  5  8  1  0
  7  9  1  0
  9 10  1  0
  3 11  2  0
  5 11  1  0
 10 12  2  3
  9 13  2  0
 11 13  1  0
 12 14  1  0
 14 15  1  0
M  END
$$$$

     RDKit          3D

 15 16  0  0  0  0  0  0  0  0999 V2000
  138.9705  151.3131  142.5679 C   0  0  0  0  0  0  0  0  0  0  0  0
  138.6042  152.0888  143.2654 C   0  0  0  0  0  0  0  0  0  0  0  0
  137.4887  151.7640  144.1910 C   0  0  0  0  0  0  0  0  0  0  0  0
  137.1673  150.4135  144.2710 C   0  0  0  0  0  0  0  0  0  0  0  0
  136.7837  152.6380  145.0886 C   0  0  0  0  0  0  0  0  0  0  0  0
  138.5889  149.8386  142.4057 C   0  0  0  0  0  0  0  0  0  0  0  0
  137.0939  153.8636  145.1629 C   0  0  0  0  0  0  0  0  0  0  0  0
  139.0958  149.0319  141.4957 C   0  0  0  0  0  0  0  0  0  0  0  0
  135.6368  152.1771  145.3913 C   0  0  0  0  0  0  0  0  0  0  0  0
  135.3317  150.8634  145.3879 C   0  0  0  0  0  0  0  0  0  0  0  0
  139.4080  149.6929  140.2383 C   0  0  0  0  0  0  0  0  0  0  0  0
  134.7492  153.1433  145.9026 C   0  0  0  0  0  0  0  0  0  0  0  0
  140.1218  149.0583  139.2218 C   0  0  0  0  0  0  0  0  0  0  0  0
  135.9449  149.8379  144.9500 C   0  0  0  0  0  0  0  0  0  0  0  0
  137.9042  149.5744  143.5240 N   0  0  0  0  0  0  0  0  0  0  0  0
  1  2  1  0
  2  3  2  0
  3  4  1  0
  3  5  1  0
  1  6  2  0
  5  7  1  0
  6  8  1  0
  5  9  2  0
  9 10  1  0
  8 11  2  3
  9 12  1  0
 11 13  1  0
  4 14  1  0
 10 14  2  0
  4 15  2  0
  6 15  1  0
M  END
$$$$

     RDKit          3D

 15 16  0  0  0  0  0  0  0  0999 V2000
  138.9705  151.3131  142.5679 C   0  0  0  0  0  0  0  0  0  0  0  0
  138.6042  152.0888  143.2654 C   0  0  0  0  0  0  0  0  0  0  0  0
  137.6600  151.8318  144.0475 C   0  0  0  0  0  0  0  0  0  0  0  0
  136.5825  152.7511  144.5734 C   0  0  0  0  0  0  0  0  0  0  0  0
  135.5827  152.5121  145.5093 C   0  0  0  0  0  0  0  0  0  0  0  0
  139.9322  151.4080  141.3737 C   0  0  0  0  0  0  0  0  0  0  0  0
  135.6283  151.0416  145.7979 C   0  0  0  0  0  0  0  0  0  0  0  0
  139.6618  150.7206  140.2290 C   0  0  0  0  0  0  0  0  0  0  0  0
  137.2798  150.4935  144.5471 C   0  0  0  0  0  0  0  0  0  0  0  0
  136.3854  150.1314  145.4417 C   0  0  0  0  0  0  0  0  0  0  0  0
  138.4722  150.0213  140.1853 C   0  0  0  0  0  0  0  0  0  0  0  0
  137.5144  149.8046  141.2135 C   0  0  0  0  0  0  0  0  0  0  0  0
  136.2820  149.2529  141.0186 C   0  0  0  0  0  0  0  0  0  0  0  0
  137.9591  150.2554  142.2824 C   0  0  0  0  0  0  0  0  0  0  0  0
  138.0844  149.4390  138.8777 C   0  0  0  0  0  0  0  0  0  0  0  0
  1  2  2  3
  2  3  1  0
  3  4  1  0
  4  5  2  0
  1  6  1  0
  5  7  1  0
  6  8  2  0
  3  9  2  0
  7 10  2  0
  9 10  1  0
  8 11  1  0
 11 12  1  0
 12 13  1  0
  1 14  1  0
 12 14  2  0
 11 15  1  0
M  END
$$$$

     RDKit          3D

 15 16  0  0  0  0  0  0  0  0999 V2000
  140.3038  150.2150  139.4785 Cl  0  0  0  0  0  0  0  0  0  0  0  0
  138.6786  150.1874  140.5317 C   0  0  0  0  0  0  0  0  0  0  0  0
  137.6385  149.3840  140.0946 C   0  0  0  0  0  0  0  0  0  0  0  0
  139.2404  150.7160  141.5759 C   0  0  0  0  0  0  0  0  0  0  0  0
  138.3592  151.0512  142.3776 C   0  0  0  0  0  0  0  0  0  0  0  0
  136.9526  150.5124  142.2952 C   0  0  0  0  0  0  0  0  0  0  0  0
  138.4072  151.7168  143.9009 C   0  0  0  0  0  0  0  0  0  0  0  0
  137.3935  148.7832  139.0047 C   0  0  0  0  0  0  0  0  0  0  0  0
  135.9042  150.8550  143.2900 C   0  0  0  0  0  0  0  0  0  0  0  0
  136.2681  151.2342  144.5831 C   0  0  0  0  0  0  0  0  0  0  0  0
  135.2221  151.2812  145.5804 C   0  0  0  0  0  0  0  0  0  0  0  0
  134.1739  150.7811  145.8228 C   0  0  0  0  0  0  0  0  0  0  0  0
  137.3331  151.5624  144.8306 N   0  0  0  0  0  0  0  0  0  0  0  0
  135.6078  152.4709  146.6036 C   0  0  0  0  0  0  0  0  0  0  0  0
  136.5888  149.8450  141.0621 C   0  0  0  0  0  0  0  0  0  0  0  0
  1  2  1  0
  2  3  1  0
  2  4  2  0
  4  5  1  0
  5  6  2  0
  5  7  1  0
  3  8  1  0
  6  9  1  0
  9 10  2  0
 10 11  1  0
 11 12  2  0
  7 13  2  0
 10 13  1  0
 11 14  1  0
  3 15  2  0
  6 15  1  0
M  END
$$$$

     RDKit          3D

 15 16  0  0  0  0  0  0  0  0999 V2000
  139.5546  150.5070  140.4440 C   0  0  0  0  0  0  0  0  0  0  0  0
  139.2168  150.0150  139.3722 C   0  0  0  0  0  0  0  0  0  0  0  0
  138.8581  150.3073  141.5852 C   0  0  0  0  0  0  0  0  0  0  0  0
  139.2290  150.3516  142.8905 C   0  0  0  0  0  0  0  0  0  0  0  0
  138.3519  151.0008  143.9747 C   0  0  0  0  0  0  0  0  0  0  0  0
  137.3998  151.4263  143.6194 C   0  0  0  0  0  0  0  0  0  0  0  0
  136.5329  152.2351  144.5998 C   0  0  0  0  0  0  0  0  0  0  0  0
  140.0211  149.8480  138.1416 C   0  0  0  0  0  0  0  0  0  0  0  0
  136.9530  151.2219  142.2408 C   0  0  0  0  0  0  0  0  0  0  0  0
  137.5310  150.6139  141.3916 C   0  0  0  0  0  0  0  0  0  0  0  0
  136.9561  153.4364  145.0757 C   0  0  0  0  0  0  0  0  0  0  0  0
  135.6475  151.7148  145.2364 C   0  0  0  0  0  0  0  0  0  0  0  0
  135.1279  152.4183  146.2321 C   0  0  0  0  0  0  0  0  0  0  0  0
  134.1755  152.0916  147.2106 C   0  0  0  0  0  0  0  0  0  0  0  0
  136.0608  153.7836  146.2086 C   0  0  0  0  0  0  0  0  0  0  0  0
  1  2  2  3
  1  3  1  0
  3  4  1  0
  4  5  2  0
  5  6  1  0
  6  7  1  0
  2  8  1  0
  6  9  2  0
  3 10  2  0
  9 10  1  0
  7 11  1  0
  7 12  2  0
 12 13  1  0
 13 14  1  0
 11 15  1  0
 13 15  1  0
M  END
$$$$

     RDKit          3D

 15 17  0  0  0  0  0  0  0  0999 V2000
  139.5546  150.5070  140.4440 C   0  0  0  0  0  0  0  0  0  0  0  0
  139.2168  150.0150  139.3722 C   0  0  0  0  0  0  0  0  0  0  0  0
  138.8581  150.3073  141.5852 C   0  0  0  0  0  0  0  0  0  0  0  0
  139.2290  150.3516  142.8905 C   0  0  0  0  0  0  0  0  0  0  0  0
  138.3519  151.0008  143.9747 C   0  0  0  0  0  0  0  0  0  0  0  0
  137.3998  151.4263  143.6194 C   0  0  0  0  0  0  0  0  0  0  0  0
  136.5329  152.2351  144.5998 C   0  0  0  0  0  0  0  0  0  0  0  0
  136.9653  151.2809  142.2541 C   0  0  0  0  0  0  0  0  0  0  0  0
  137.7067  150.6216  141.4269 C   0  0  0  0  0  0  0  0  0  0  0  0
  136.9211  153.4568  145.0572 C   0  0  0  0  0  0  0  0  0  0  0  0
  135.6699  151.7277  145.3014 C   0  0  0  0  0  0  0  0  0  0  0  0
  137.8081  149.9498  139.0347 C   0  0  0  0  0  0  0  0  0  0  0  0
  135.1546  152.4510  146.2481 C   0  0  0  0  0  0  0  0  0  0  0  0
  136.7548  150.2253  140.3004 C   0  0  0  0  0  0  0  0  0  0  0  0
  135.7427  153.7507  146.3344 C   0  0  0  0  0  0  0  0  0  0  0  0
  1  2  2  0
  1  3  1  0
  3  4  1  0
  4  5  2  0
  5  6  1  0
  6  7  1  0
  6  8  2  0
  3  9  2  0
  8  9  1  0
  7 10  1  0
  7 11  2  0
  2 12  1  0
 11 13  1  0
  9 14  1  0
 12 14  2  0
 10 15  1  0
 13 15  2  0
M  END
$$$$

     RDKit          3D

 15 16  0  0  0  0  0  0  0  0999 V2000
  138.9705  151.3131  142.5679 C   0  0  0  0  0  0  0  0  0  0  0  0
  138.6042  152.0888  143.2654 C   0  0  0  0  0  0  0  0  0  0  0  0
  137.4887  151.7640  144.1910 C   0  0  0  0  0  0  0  0  0  0  0  0
  137.1673  150.4135  144.2710 C   0  0  0  0  0  0  0  0  0  0  0  0
  136.7837  152.6380  145.0886 C   0  0  0  0  0  0  0  0  0  0  0  0
  138.5889  149.8386  142.4057 C   0  0  0  0  0  0  0  0  0  0  0  0
  137.0939  153.8636  145.1629 C   0  0  0  0  0  0  0  0  0  0  0  0
  139.0958  149.0319  141.4957 C   0  0  0  0  0  0  0  0  0  0  0  0
  138.9655  149.3989  140.0909 C   0  0  0  0  0  0  0  0  0  0  0  0
  135.6339  152.1940  145.3963 C   0  0  0  0  0  0  0  0  0  0  0  0
  135.3253  150.8781  145.4110 C   0  0  0  0  0  0  0  0  0  0  0  0
  134.7594  153.1602  145.9076 C   0  0  0  0  0  0  0  0  0  0  0  0
  135.9126  149.8496  144.9627 C   0  0  0  0  0  0  0  0  0  0  0  0
  137.8254  149.5269  143.4224 N   0  0  0  0  0  0  0  0  0  0  0  0
  138.2301  149.0850  139.2510 C   0  0  0  0  0  0  0  0  0  0  0  0
  1  2  1  0
  2  3  2  0
  3  4  1  0
  3  5  1  0
  1  6  2  0
  5  7  1  0
  6  8  1  0
  8  9  1  0
  5 10  2  0
 10 11  1  0
 10 12  1  0
  4 13  1  0
 11 13  2  0
  4 14  2  0
  6 14  1  0
  9 15  2  0
M  END
$$$$

     RDKit          3D

 15 16  0  0  0  0  0  0  0  0999 V2000
  138.9705  151.3131  142.5679 C   0  0  0  0  0  0  0  0  0  0  0  0
  138.6042  152.0888  143.2654 C   0  0  0  0  0  0  0  0  0  0  0  0
  137.4887  151.7640  144.1910 C   0  0  0  0  0  0  0  0  0  0  0  0
  137.1673  150.4135  144.2710 C   0  0  0  0  0  0  0  0  0  0  0  0
  136.7837  152.6380  145.0886 C   0  0  0  0  0  0  0  0  0  0  0  0
  138.5889  149.8386  142.4057 C   0  0  0  0  0  0  0  0  0  0  0  0
  137.0939  153.8636  145.1629 C   0  0  0  0  0  0  0  0  0  0  0  0
  139.0958  149.0319  141.4957 C   0  0  0  0  0  0  0  0  0  0  0  0
  135.6368  152.1771  145.3913 C   0  0  0  0  0  0  0  0  0  0  0  0
  135.3317  150.8634  145.3879 C   0  0  0  0  0  0  0  0  0  0  0  0
  139.4080  149.6929  140.2383 C   0  0  0  0  0  0  0  0  0  0  0  0
  137.4725  149.5155  143.3046 N   0  0  0  0  0  0  0  0  0  0  0  0
  134.2850  150.3628  146.3125 C   0  0  0  0  0  0  0  0  0  0  0  0
  139.4016  149.1499  139.0231 C   0  0  0  0  0  0  0  0  0  0  0  0
  136.0624  149.8592  144.9800 N   0  0  0  0  0  0  0  0  0  0  0  0
  1  2  1  0
  2  3  2  0
  3  4  1  0
  3  5  1  0
  1  6  2  0
  5  7  1  0
  6  8  1  0
  5  9  2  0
  9 10  1  0
  8 11  2  3
  4 12  2  0
  6 12  1  0
 10 13  1  0
 11 14  1  0
  4 15  1  0
 10 15  2  0
M  END
$$$$

     RDKit          3D

 15 16  0  0  0  0  0  0  0  0999 V2000
  140.3038  150.2150  139.4785 Cl  0  0  0  0  0  0  0  0  0  0  0  0
  138.6786  150.1874  140.5317 C   0  0  0  0  0  0  0  0  0  0  0  0
  137.6385  149.3840  140.0946 C   0  0  0  0  0  0  0  0  0  0  0  0
  138.7506  150.9507  141.6713 C   0  0  0  0  0  0  0  0  0  0  0  0
  136.5527  149.6212  140.7745 C   0  0  0  0  0  0  0  0  0  0  0  0
  135.2919  149.0327  140.1418 C   0  0  0  0  0  0  0  0  0  0  0  0
  136.5287  150.4782  141.8364 C   0  0  0  0  0  0  0  0  0  0  0  0
  135.3193  150.6924  142.7156 C   0  0  0  0  0  0  0  0  0  0  0  0
  135.8151  151.3358  144.0288 C   0  0  0  0  0  0  0  0  0  0  0  0
  137.7454  151.0900  142.3267 C   0  0  0  0  0  0  0  0  0  0  0  0
  135.2438  151.1717  145.2002 C   0  0  0  0  0  0  0  0  0  0  0  0
  136.7790  152.2275  143.9150 C   0  0  0  0  0  0  0  0  0  0  0  0
  134.1410  150.4924  145.6148 C   0  0  0  0  0  0  0  0  0  0  0  0
  137.8946  152.0869  143.3991 C   0  0  0  0  0  0  0  0  0  0  0  0
  135.9815  151.9255  146.3628 C   0  0  0  0  0  0  0  0  0  0  0  0
  1  2  1  0
  2  3  2  0
  2  4  1  0
  3  5  1  0
  5  6  1  0
  5  7  2  0
  7  8  1  0
  8  9  1  0
  4 10  2  0
  7 10  1  0
  9 11  2  3
  9 12  1  0
 11 13  1  0
 10 14  1  0
 12 14  2  0
 11 15  1  0
M  END
$$$$

     RDKit          3D

 15 16  0  0  0  0  0  0  0  0999 V2000
  139.5546  150.5070  140.4440 C   0  0  0  0  0  0  0  0  0  0  0  0
  139.2168  150.0150  139.3722 C   0  0  0  0  0  0  0  0  0  0  0  0
  138.8581  150.3073  141.5852 C   0  0  0  0  0  0  0  0  0  0  0  0
  137.9799  149.2986  139.2370 C   0  0  0  0  0  0  0  0  0  0  0  0
  137.1575  149.1630  140.3909 C   0  0  0  0  0  0  0  0  0  0  0  0
  139.3383  150.9197  142.9169 C   0  0  0  0  0  0  0  0  0  0  0  0
  138.3080  151.0871  143.9346 C   0  0  0  0  0  0  0  0  0  0  0  0
  135.7334  148.7642  140.2438 C   0  0  0  0  0  0  0  0  0  0  0  0
  137.1254  150.5266  143.5545 C   0  0  0  0  0  0  0  0  0  0  0  0
  136.0596  150.7968  144.4933 C   0  0  0  0  0  0  0  0  0  0  0  0
  137.5394  149.7776  141.5404 C   0  0  0  0  0  0  0  0  0  0  0  0
  135.9898  150.8309  145.7769 C   0  0  0  0  0  0  0  0  0  0  0  0
  136.1021  152.2535  146.2553 C   0  0  0  0  0  0  0  0  0  0  0  0
  136.8006  149.9318  142.4230 N   0  0  0  0  0  0  0  0  0  0  0  0
  134.8453  153.0222  146.3540 C   0  0  0  0  0  0  0  0  0  0  0  0
  1  2  2  0
  1  3  1  0
  2  4  1  0
  4  5  2  0
  3  6  1  0
  6  7  2  0
  5  8  1  0
  7  9  1  0
  9 10  1  0
  3 11  2  0
  5 11  1  0
 10 12  1  0
 12 13  1  0
  9 14  2  0
 11 14  1  0
 13 15  1  0
M  END
$$$$

     RDKit          3D

 15 16  0  0  0  0  0  0  0  0999 V2000
  140.3038  150.2150  139.4785 Cl  0  0  0  0  0  0  0  0  0  0  0  0
  138.6786  150.1874  140.5317 C   0  0  0  0  0  0  0  0  0  0  0  0
  137.6385  149.3840  140.0946 C   0  0  0  0  0  0  0  0  0  0  0  0
  138.7506  150.9507  141.6713 C   0  0  0  0  0  0  0  0  0  0  0  0
  136.5527  149.6212  140.7745 C   0  0  0  0  0  0  0  0  0  0  0  0
  135.2919  149.0327  140.1418 C   0  0  0  0  0  0  0  0  0  0  0  0
  136.5287  150.4782  141.8364 C   0  0  0  0  0  0  0  0  0  0  0  0
  135.3193  150.6924  142.7156 C   0  0  0  0  0  0  0  0  0  0  0  0
  135.8151  151.3358  144.0288 C   0  0  0  0  0  0  0  0  0  0  0  0
  137.7454  151.0900  142.3267 C   0  0  0  0  0  0  0  0  0  0  0  0
  135.2438  151.1717  145.2002 C   0  0  0  0  0  0  0  0  0  0  0  0
  136.7790  152.2275  143.9150 C   0  0  0  0  0  0  0  0  0  0  0  0
  134.1410  150.4924  145.6148 C   0  0  0  0  0  0  0  0  0  0  0  0
  136.0650  151.9153  146.3075 C   0  0  0  0  0  0  0  0  0  0  0  0
  138.0293  151.8583  143.3429 C   0  0  0  0  0  0  0  0  0  0  0  0
  1  2  1  0
  2  3  2  0
  2  4  1  0
  3  5  1  0
  5  6  1  0
  5  7  2  0
  7  8  1  0
  8  9  1  0
  4 10  2  0
  7 10  1  0
  9 11  2  3
  9 12  1  0
 11 13  1  0
 11 14  1  0
 10 15  1  0
 12 15  1  0
M  END
$$$$

     RDKit          3D

 15 16  0  0  0  0  0  0  0  0999 V2000
  138.9705  151.3131  142.5679 C   0  0  0  0  0  0  0  0  0  0  0  0
  138.6042  152.0888  143.2654 C   0  0  0  0  0  0  0  0  0  0  0  0
  137.4887  151.7640  144.1910 C   0  0  0  0  0  0  0  0  0  0  0  0
  137.1673  150.4135  144.2710 C   0  0  0  0  0  0  0  0  0  0  0  0
  136.7837  152.6380  145.0886 C   0  0  0  0  0  0  0  0  0  0  0  0
  138.5889  149.8386  142.4057 C   0  0  0  0  0  0  0  0  0  0  0  0
  137.0939  153.8636  145.1629 C   0  0  0  0  0  0  0  0  0  0  0  0
  139.0958  149.0319  141.4957 C   0  0  0  0  0  0  0  0  0  0  0  0
  138.9655  149.3989  140.0909 C   0  0  0  0  0  0  0  0  0  0  0  0
  135.6272  152.1482  145.6705 C   0  0  0  0  0  0  0  0  0  0  0  0
  135.4044  150.8287  145.6572 C   0  0  0  0  0  0  0  0  0  0  0  0
  137.5699  149.5354  143.3308 N   0  0  0  0  0  0  0  0  0  0  0  0
  139.4181  150.3514  139.5313 C   0  0  0  0  0  0  0  0  0  0  0  0
  134.7188  153.0501  146.2142 C   0  0  0  0  0  0  0  0  0  0  0  0
  136.1393  149.9533  145.1377 N   0  0  0  0  0  0  0  0  0  0  0  0
  1  2  1  0
  2  3  2  0
  3  4  1  0
  3  5  1  0
  1  6  2  0
  5  7  1  0
  6  8  1  0
  8  9  1  0
  5 10  2  0
 10 11  1  0
  4 12  1  0
  6 12  1  0
  9 13  2  0
 10 14  1  0
  4 15  1  0
 11 15  1  0
M  END
$$$$

     RDKit          3D

 15 16  0  0  0  0  0  0  0  0999 V2000
  139.3423  149.9928  140.5892 C   0  0  0  0  0  0  0  0  0  0  0  0
  138.9530  149.9232  139.3662 C   0  0  0  0  0  0  0  0  0  0  0  0
  138.6126  150.1100  141.6424 C   0  0  0  0  0  0  0  0  0  0  0  0
  137.1875  149.8648  141.8313 C   0  0  0  0  0  0  0  0  0  0  0  0
  136.5143  149.7627  140.5785 C   0  0  0  0  0  0  0  0  0  0  0  0
  139.1422  150.4925  143.0862 C   0  0  0  0  0  0  0  0  0  0  0  0
  138.2697  151.1411  143.8764 C   0  0  0  0  0  0  0  0  0  0  0  0
  139.6670  149.8864  138.1606 C   0  0  0  0  0  0  0  0  0  0  0  0
  137.0386  149.6854  139.2154 C   0  0  0  0  0  0  0  0  0  0  0  0
  137.1519  151.2104  144.1348 C   0  0  0  0  0  0  0  0  0  0  0  0
  136.1829  150.5202  143.1931 C   0  0  0  0  0  0  0  0  0  0  0  0
  136.2059  151.7817  145.0924 C   0  0  0  0  0  0  0  0  0  0  0  0
  135.0648  151.4905  145.3865 C   0  0  0  0  0  0  0  0  0  0  0  0
  136.9252  152.9242  145.8298 C   0  0  0  0  0  0  0  0  0  0  0  0
  134.1150  152.2796  145.9178 C   0  0  0  0  0  0  0  0  0  0  0  0
  1  2  2  0
  1  3  1  0
  3  4  1  0
  4  5  2  0
  3  6  1  0
  6  7  2  0
  2  8  1  0
  2  9  1  0
  5  9  1  0
  7 10  1  0
  4 11  1  0
 10 11  2  0
 10 12  1  0
 12 13  2  3
 12 14  1  0
 13 15  1  0
M  END
$$$$

     RDKit          3D

 15 16  0  0  0  0  0  0  0  0999 V2000
  138.9705  151.3131  142.5679 C   0  0  0  0  0  0  0  0  0  0  0  0
  138.6042  152.0888  143.2654 C   0  0  0  0  0  0  0  0  0  0  0  0
  137.4887  151.7640  144.1910 C   0  0  0  0  0  0  0  0  0  0  0  0
  137.1673  150.4135  144.2710 C   0  0  0  0  0  0  0  0  0  0  0  0
  136.7837  152.6380  145.0886 C   0  0  0  0  0  0  0  0  0  0  0  0
  138.5889  149.8386  142.4057 C   0  0  0  0  0  0  0  0  0  0  0  0
  137.0939  153.8636  145.1629 C   0  0  0  0  0  0  0  0  0  0  0  0
  139.0958  149.0319  141.4957 C   0  0  0  0  0  0  0  0  0  0  0  0
  138.9655  149.3989  140.0909 C   0  0  0  0  0  0  0  0  0  0  0  0
  135.6339  152.1940  145.3963 C   0  0  0  0  0  0  0  0  0  0  0  0
  135.3253  150.8781  145.4110 C   0  0  0  0  0  0  0  0  0  0  0  0
  137.5150  149.5326  143.3548 N   0  0  0  0  0  0  0  0  0  0  0  0
  134.6809  153.1710  146.0261 C   0  0  0  0  0  0  0  0  0  0  0  0
  136.3257  149.9802  145.1231 N   0  0  0  0  0  0  0  0  0  0  0  0
  139.1994  148.8557  139.1033 C   0  0  0  0  0  0  0  0  0  0  0  0
  1  2  1  0
  2  3  2  0
  3  4  1  0
  3  5  1  0
  1  6  2  0
  5  7  1  0
  6  8  1  0
  8  9  1  0
  5 10  2  0
 10 11  1  0
  4 12  2  0
  6 12  1  0
 10 13  1  0
  4 14  1  0
 11 14  2  0
  9 15  1  0
M  END
$$$$

     RDKit          3D

 15 16  0  0  0  0  0  0  0  0999 V2000
  139.3423  149.9928  140.5892 C   0  0  0  0  0  0  0  0  0  0  0  0
  138.9530  149.9232  139.3662 C   0  0  0  0  0  0  0  0  0  0  0  0
  138.6126  150.1100  141.6424 C   0  0  0  0  0  0  0  0  0  0  0  0
  137.1875  149.8648  141.8313 C   0  0  0  0  0  0  0  0  0  0  0  0
  136.5143  149.7627  140.5785 C   0  0  0  0  0  0  0  0  0  0  0  0
  139.1751  150.3995  143.1329 C   0  0  0  0  0  0  0  0  0  0  0  0
  138.2221  150.9725  144.0846 C   0  0  0  0  0  0  0  0  0  0  0  0
  139.6660  149.8809  138.1670 C   0  0  0  0  0  0  0  0  0  0  0  0
  136.9203  150.8967  143.8605 C   0  0  0  0  0  0  0  0  0  0  0  0
  136.9668  149.6661  139.2303 C   0  0  0  0  0  0  0  0  0  0  0  0
  136.1110  151.3528  145.0459 C   0  0  0  0  0  0  0  0  0  0  0  0
  136.4782  151.3367  146.3416 C   0  0  0  0  0  0  0  0  0  0  0  0
  138.0351  149.7875  138.6931 C   0  0  0  0  0  0  0  0  0  0  0  0
  136.3874  150.3011  142.7976 C   0  0  0  0  0  0  0  0  0  0  0  0
  135.2911  152.3256  144.9388 C   0  0  0  0  0  0  0  0  0  0  0  0
  1  2  2  0
  1  3  1  0
  3  4  1  0
  4  5  2  0
  3  6  1  0
  6  7  2  0
  2  8  1  0
  7  9  1  0
  5 10  1  0
  9 11  1  0
 11 12  1  0
  2 13  1  0
 10 13  2  0
  4 14  1  0
  9 14  2  0
 11 15  2  0
M  END
$$$$

     RDKit          3D

 15 16  0  0  0  0  0  0  0  0999 V2000
  138.9705  151.3131  142.5679 C   0  0  0  0  0  0  0  0  0  0  0  0
  138.6042  152.0888  143.2654 C   0  0  0  0  0  0  0  0  0  0  0  0
  137.4887  151.7640  144.1910 C   0  0  0  0  0  0  0  0  0  0  0  0
  137.1673  150.4135  144.2710 C   0  0  0  0  0  0  0  0  0  0  0  0
  136.7837  152.6380  145.0886 C   0  0  0  0  0  0  0  0  0  0  0  0
  138.5889  149.8386  142.4057 C   0  0  0  0  0  0  0  0  0  0  0  0
  137.0939  153.8636  145.1629 C   0  0  0  0  0  0  0  0  0  0  0  0
  139.0958  149.0319  141.4957 C   0  0  0  0  0  0  0  0  0  0  0  0
  138.9655  149.3989  140.0909 C   0  0  0  0  0  0  0  0  0  0  0  0
  135.6272  152.1482  145.6705 C   0  0  0  0  0  0  0  0  0  0  0  0
  135.4044  150.8287  145.6572 C   0  0  0  0  0  0  0  0  0  0  0  0
  137.5699  149.5354  143.3308 N   0  0  0  0  0  0  0  0  0  0  0  0
  139.4181  150.3514  139.5313 C   0  0  0  0  0  0  0  0  0  0  0  0
  136.0523  149.9137  145.0992 C   0  0  0  0  0  0  0  0  0  0  0  0
  134.8926  153.2987  146.1998 C   0  0  0  0  0  0  0  0  0  0  0  0
  1  2  1  0
  2  3  2  0
  3  4  1  0
  3  5  1  0
  1  6  2  0
  5  7  1  0
  6  8  1  0
  8  9  1  0
  5 10  2  0
 10 11  1  0
  4 12  1  0
  6 12  1  0
  9 13  2  0
  4 14  2  0
 11 14  1  0
 10 15  1  0
M  END
$$$$

     RDKit          3D

 15 16  0  0  0  0  0  0  0  0999 V2000
  140.3038  150.2150  139.4785 Cl  0  0  0  0  0  0  0  0  0  0  0  0
  138.6786  150.1874  140.5317 C   0  0  0  0  0  0  0  0  0  0  0  0
  137.6385  149.3840  140.0946 C   0  0  0  0  0  0  0  0  0  0  0  0
  138.7506  150.9507  141.6713 C   0  0  0  0  0  0  0  0  0  0  0  0
  136.5527  149.6212  140.7745 C   0  0  0  0  0  0  0  0  0  0  0  0
  135.2919  149.0327  140.1418 C   0  0  0  0  0  0  0  0  0  0  0  0
  136.5287  150.4782  141.8364 C   0  0  0  0  0  0  0  0  0  0  0  0
  135.3193  150.6924  142.7156 C   0  0  0  0  0  0  0  0  0  0  0  0
  135.8151  151.3358  144.0288 C   0  0  0  0  0  0  0  0  0  0  0  0
  137.7454  151.0900  142.3267 C   0  0  0  0  0  0  0  0  0  0  0  0
  135.2438  151.1717  145.2002 C   0  0  0  0  0  0  0  0  0  0  0  0
  136.8017  152.3192  144.0193 C   0  0  0  0  0  0  0  0  0  0  0  0
  135.7671  151.7879  146.3674 C   0  0  0  0  0  0  0  0  0  0  0  0
  137.9886  151.8619  143.4124 N   0  0  0  0  0  0  0  0  0  0  0  0
  135.0335  151.8845  147.5451 C   0  0  0  0  0  0  0  0  0  0  0  0
  1  2  1  0
  2  3  2  0
  2  4  1  0
  3  5  1  0
  5  6  1  0
  5  7  2  0
  7  8  1  0
  8  9  1  0
  4 10  2  0
  7 10  1  0
  9 11  2  3
  9 12  1  0
 11 13  1  0
 10 14  1  0
 12 14  2  0
 13 15  1  0
M  END
$$$$

     RDKit          3D

 15 16  0  0  0  0  0  0  0  0999 V2000
  138.9705  151.3131  142.5679 C   0  0  0  0  0  0  0  0  0  0  0  0
  138.6042  152.0888  143.2654 C   0  0  0  0  0  0  0  0  0  0  0  0
  137.6600  151.8318  144.0475 C   0  0  0  0  0  0  0  0  0  0  0  0
  136.5825  152.7511  144.5734 C   0  0  0  0  0  0  0  0  0  0  0  0
  135.5827  152.5121  145.5093 C   0  0  0  0  0  0  0  0  0  0  0  0
  139.9322  151.4080  141.3737 C   0  0  0  0  0  0  0  0  0  0  0  0
  135.6283  151.0416  145.7979 C   0  0  0  0  0  0  0  0  0  0  0  0
  139.6618  150.7206  140.2290 C   0  0  0  0  0  0  0  0  0  0  0  0
  137.2798  150.4935  144.5471 C   0  0  0  0  0  0  0  0  0  0  0  0
  136.3854  150.1314  145.4417 C   0  0  0  0  0  0  0  0  0  0  0  0
  138.4722  150.0213  140.1853 C   0  0  0  0  0  0  0  0  0  0  0  0
  137.5144  149.8046  141.2135 C   0  0  0  0  0  0  0  0  0  0  0  0
  140.6056  150.6571  139.1832 C   0  0  0  0  0  0  0  0  0  0  0  0
  136.3011  149.3383  141.0592 C   0  0  0  0  0  0  0  0  0  0  0  0
  138.0396  150.2261  142.2666 C   0  0  0  0  0  0  0  0  0  0  0  0
  1  2  2  3
  2  3  1  0
  3  4  1  0
  4  5  2  0
  1  6  1  0
  5  7  1  0
  6  8  2  0
  3  9  2  0
  7 10  2  0
  9 10  1  0
  8 11  1  0
 11 12  1  0
  8 13  1  0
 12 14  1  0
  1 15  1  0
 12 15  2  0
M  END
$$$$

     RDKit          3D

 15 17  0  0  0  0  0  0  0  0999 V2000
  139.5546  150.5070  140.4440 C   0  0  0  0  0  0  0  0  0  0  0  0
  139.2168  150.0150  139.3722 C   0  0  0  0  0  0  0  0  0  0  0  0
  138.8581  150.3073  141.5852 C   0  0  0  0  0  0  0  0  0  0  0  0
  139.2290  150.3516  142.8905 C   0  0  0  0  0  0  0  0  0  0  0  0
  138.3519  151.0008  143.9747 C   0  0  0  0  0  0  0  0  0  0  0  0
  137.3998  151.4263  143.6194 C   0  0  0  0  0  0  0  0  0  0  0  0
  136.5329  152.2351  144.5998 C   0  0  0  0  0  0  0  0  0  0  0  0
  136.9653  151.2809  142.2541 C   0  0  0  0  0  0  0  0  0  0  0  0
  137.7067  150.6216  141.4269 C   0  0  0  0  0  0  0  0  0  0  0  0
  136.9211  153.4568  145.0572 C   0  0  0  0  0  0  0  0  0  0  0  0
  135.6699  151.7277  145.3014 C   0  0  0  0  0  0  0  0  0  0  0  0
  137.8081  149.9498  139.0347 C   0  0  0  0  0  0  0  0  0  0  0  0
  135.1546  152.4510  146.2481 C   0  0  0  0  0  0  0  0  0  0  0  0
  136.7548  150.2253  140.3004 C   0  0  0  0  0  0  0  0  0  0  0  0
  135.8263  153.6342  146.3664 C   0  0  0  0  0  0  0  0  0  0  0  0
  1  2  2  0
  1  3  1  0
  3  4  1  0
  4  5  2  0
  5  6  1  0
  6  7  1  0
  6  8  2  0
  3  9  2  0
  8  9  1  0
  7 10  1  0
  7 11  2  0
  2 12  1  0
 11 13  1  0
  9 14  1  0
 12 14  2  0
 10 15  1  0
 13 15  1  0
M  END
$$$$

     RDKit          3D

 15 16  0  0  0  0  0  0  0  0999 V2000
  138.9705  151.3131  142.5679 C   0  0  0  0  0  0  0  0  0  0  0  0
  138.6042  152.0888  143.2654 C   0  0  0  0  0  0  0  0  0  0  0  0
  137.4887  151.7640  144.1910 C   0  0  0  0  0  0  0  0  0  0  0  0
  137.1673  150.4135  144.2710 C   0  0  0  0  0  0  0  0  0  0  0  0
  136.7837  152.6380  145.0886 C   0  0  0  0  0  0  0  0  0  0  0  0
  138.5889  149.8386  142.4057 C   0  0  0  0  0  0  0  0  0  0  0  0
  137.0939  153.8636  145.1629 C   0  0  0  0  0  0  0  0  0  0  0  0
  139.0958  149.0319  141.4957 C   0  0  0  0  0  0  0  0  0  0  0  0
  135.6368  152.1771  145.3913 C   0  0  0  0  0  0  0  0  0  0  0  0
  135.3317  150.8634  145.3879 C   0  0  0  0  0  0  0  0  0  0  0  0
  139.4080  149.6929  140.2383 C   0  0  0  0  0  0  0  0  0  0  0  0
  134.7492  153.1433  145.9026 C   0  0  0  0  0  0  0  0  0  0  0  0
  140.1218  149.0583  139.2218 C   0  0  0  0  0  0  0  0  0  0  0  0
  137.5112  149.5239  143.3394 N   0  0  0  0  0  0  0  0  0  0  0  0
  136.0956  149.9388  145.0721 C   0  0  0  0  0  0  0  0  0  0  0  0
  1  2  1  0
  2  3  2  0
  3  4  1  0
  3  5  1  0
  1  6  2  0
  5  7  1  0
  6  8  1  0
  5  9  2  0
  9 10  1  0
  8 11  2  3
  9 12  1  0
 11 13  1  0
  4 14  1  0
  6 14  1  0
  4 15  2  0
 10 15  1  0
M  END
$$$$

     RDKit          3D

 15 16  0  0  0  0  0  0  0  0999 V2000
  138.9705  151.3131  142.5679 C   0  0  0  0  0  0  0  0  0  0  0  0
  138.6042  152.0888  143.2654 C   0  0  0  0  0  0  0  0  0  0  0  0
  137.6600  151.8318  144.0475 C   0  0  0  0  0  0  0  0  0  0  0  0
  136.5825  152.7511  144.5734 C   0  0  0  0  0  0  0  0  0  0  0  0
  135.5827  152.5121  145.5093 C   0  0  0  0  0  0  0  0  0  0  0  0
  139.9322  151.4080  141.3737 C   0  0  0  0  0  0  0  0  0  0  0  0
  135.6283  151.0416  145.7979 C   0  0  0  0  0  0  0  0  0  0  0  0
  137.2911  150.5061  144.5502 C   0  0  0  0  0  0  0  0  0  0  0  0
  139.6740  150.6670  140.2600 C   0  0  0  0  0  0  0  0  0  0  0  0
  134.5974  150.7455  146.8356 C   0  0  0  0  0  0  0  0  0  0  0  0
  136.4551  150.0956  145.3564 C   0  0  0  0  0  0  0  0  0  0  0  0
  138.4929  149.9508  140.2321 C   0  0  0  0  0  0  0  0  0  0  0  0
  138.1049  150.1345  142.1952 C   0  0  0  0  0  0  0  0  0  0  0  0
  138.0922  149.4474  138.8636 C   0  0  0  0  0  0  0  0  0  0  0  0
  137.6844  149.5689  141.2178 C   0  0  0  0  0  0  0  0  0  0  0  0
  1  2  2  3
  2  3  1  0
  3  4  1  0
  4  5  2  0
  1  6  1  0
  5  7  1  0
  3  8  2  0
  6  9  2  0
  7 10  1  0
  7 11  2  0
  8 11  1  0
  9 12  1  0
  1 13  1  0
 12 14  1  0
 12 15  2  0
 13 15  1  0
M  END
$$$$

     RDKit          3D

 15 16  0  0  0  0  0  0  0  0999 V2000
  139.5546  150.5070  140.4440 C   0  0  0  0  0  0  0  0  0  0  0  0
  139.2168  150.0150  139.3722 C   0  0  0  0  0  0  0  0  0  0  0  0
  138.8581  150.3073  141.5852 C   0  0  0  0  0  0  0  0  0  0  0  0
  139.2290  150.3516  142.8905 C   0  0  0  0  0  0  0  0  0  0  0  0
  138.3519  151.0008  143.9747 C   0  0  0  0  0  0  0  0  0  0  0  0
  137.3998  151.4263  143.6194 C   0  0  0  0  0  0  0  0  0  0  0  0
  136.5329  152.2351  144.5998 C   0  0  0  0  0  0  0  0  0  0  0  0
  136.9466  151.2605  142.2215 C   0  0  0  0  0  0  0  0  0  0  0  0
  135.3507  151.6956  145.0820 C   0  0  0  0  0  0  0  0  0  0  0  0
  137.5740  150.6791  141.3291 C   0  0  0  0  0  0  0  0  0  0  0  0
  138.0288  149.3481  139.1430 C   0  0  0  0  0  0  0  0  0  0  0  0
  137.0258  150.0546  140.1449 C   0  0  0  0  0  0  0  0  0  0  0  0
  136.9243  153.4312  145.0065 C   0  0  0  0  0  0  0  0  0  0  0  0
  135.0611  152.1298  146.2933 C   0  0  0  0  0  0  0  0  0  0  0  0
  134.1562  151.4519  147.1059 C   0  0  0  0  0  0  0  0  0  0  0  0
  1  2  2  0
  1  3  1  0
  3  4  1  0
  4  5  2  0
  5  6  1  0
  6  7  1  0
  6  8  2  0
  7  9  2  3
  3 10  2  0
  8 10  1  0
  2 11  1  0
 10 12  1  0
 11 12  2  0
  7 13  1  0
  9 14  1  0
 14 15  1  0
M  END
$$$$

     RDKit          3D

 15 16  0  0  0  0  0  0  0  0999 V2000
  139.3423  149.9928  140.5892 C   0  0  0  0  0  0  0  0  0  0  0  0
  138.9530  149.9232  139.3662 C   0  0  0  0  0  0  0  0  0  0  0  0
  138.6126  150.1100  141.6424 C   0  0  0  0  0  0  0  0  0  0  0  0
  137.1875  149.8648  141.8313 C   0  0  0  0  0  0  0  0  0  0  0  0
  136.5143  149.7627  140.5785 C   0  0  0  0  0  0  0  0  0  0  0  0
  139.1751  150.3995  143.1329 C   0  0  0  0  0  0  0  0  0  0  0  0
  138.2221  150.9725  144.0846 C   0  0  0  0  0  0  0  0  0  0  0  0
  136.9301  150.9606  143.8481 C   0  0  0  0  0  0  0  0  0  0  0  0
  136.3022  150.3107  142.8172 C   0  0  0  0  0  0  0  0  0  0  0  0
  135.2450  149.4914  140.4129 C   0  0  0  0  0  0  0  0  0  0  0  0
  137.4428  149.6592  139.3653 C   0  0  0  0  0  0  0  0  0  0  0  0
  140.7673  150.3415  140.5596 C   0  0  0  0  0  0  0  0  0  0  0  0
  135.9650  151.7742  145.0116 C   0  0  0  0  0  0  0  0  0  0  0  0
  134.8848  151.3790  145.2949 C   0  0  0  0  0  0  0  0  0  0  0  0
  136.5149  152.7000  145.3372 O   0  0  0  0  0  0  0  0  0  0  0  0
  1  2  2  0
  1  3  1  0
  3  4  1  0
  4  5  2  0
  3  6  1  0
  6  7  2  0
  7  8  1  0
  4  9  1  0
  8  9  2  0
  5 10  1  0
  2 11  1  0
  5 11  1  0
  1 12  1  0
  8 13  1  0
 13 14  1  0
 13 15  2  0
M  END
$$$$

     RDKit          3D

 15 16  0  0  0  0  0  0  0  0999 V2000
  139.5546  150.5070  140.4440 C   0  0  0  0  0  0  0  0  0  0  0  0
  139.2168  150.0150  139.3722 C   0  0  0  0  0  0  0  0  0  0  0  0
  138.8581  150.3073  141.5852 C   0  0  0  0  0  0  0  0  0  0  0  0
  139.2290  150.3516  142.8905 C   0  0  0  0  0  0  0  0  0  0  0  0
  138.3519  151.0008  143.9747 C   0  0  0  0  0  0  0  0  0  0  0  0
  137.3998  151.4263  143.6194 C   0  0  0  0  0  0  0  0  0  0  0  0
  136.5329  152.2351  144.5998 C   0  0  0  0  0  0  0  0  0  0  0  0
  140.0211  149.8480  138.1416 C   0  0  0  0  0  0  0  0  0  0  0  0
  136.9530  151.2219  142.2408 C   0  0  0  0  0  0  0  0  0  0  0  0
  137.5310  150.6139  141.3916 C   0  0  0  0  0  0  0  0  0  0  0  0
  136.9561  153.4364  145.0757 C   0  0  0  0  0  0  0  0  0  0  0  0
  135.6475  151.7148  145.2364 C   0  0  0  0  0  0  0  0  0  0  0  0
  135.1279  152.4183  146.2321 C   0  0  0  0  0  0  0  0  0  0  0  0
  134.1755  152.0916  147.2106 C   0  0  0  0  0  0  0  0  0  0  0  0
  135.7609  153.5092  146.2120 C   0  0  0  0  0  0  0  0  0  0  0  0
  1  2  2  3
  1  3  1  0
  3  4  1  0
  4  5  2  0
  5  6  1  0
  6  7  1  0
  2  8  1  0
  6  9  2  0
  3 10  2  0
  9 10  1  0
  7 11  1  0
  7 12  2  0
 12 13  1  0
 13 14  1  0
 11 15  1  0
 13 15  2  0
M  END
$$$$

     RDKit          3D

 15 16  0  0  0  0  0  0  0  0999 V2000
  138.9705  151.3131  142.5679 C   0  0  0  0  0  0  0  0  0  0  0  0
  138.6042  152.0888  143.2654 C   0  0  0  0  0  0  0  0  0  0  0  0
  137.4887  151.7640  144.1910 C   0  0  0  0  0  0  0  0  0  0  0  0
  137.1673  150.4135  144.2710 C   0  0  0  0  0  0  0  0  0  0  0  0
  136.7837  152.6380  145.0886 C   0  0  0  0  0  0  0  0  0  0  0  0
  138.5889  149.8386  142.4057 C   0  0  0  0  0  0  0  0  0  0  0  0
  137.0939  153.8636  145.1629 C   0  0  0  0  0  0  0  0  0  0  0  0
  139.0958  149.0319  141.4957 C   0  0  0  0  0  0  0  0  0  0  0  0
  138.9655  149.3989  140.0909 C   0  0  0  0  0  0  0  0  0  0  0  0
  135.6339  152.1940  145.3963 C   0  0  0  0  0  0  0  0  0  0  0  0
  135.3253  150.8781  145.4110 C   0  0  0  0  0  0  0  0  0  0  0  0
  134.7594  153.1602  145.9076 C   0  0  0  0  0  0  0  0  0  0  0  0
  137.5724  149.5306  143.3204 N   0  0  0  0  0  0  0  0  0  0  0  0
  139.4257  150.3555  139.5356 C   0  0  0  0  0  0  0  0  0  0  0  0
  136.0921  149.9563  145.0503 C   0  0  0  0  0  0  0  0  0  0  0  0
  1  2  1  0
  2  3  2  0
  3  4  1  0
  3  5  1  0
  1  6  2  0
  5  7  1  0
  6  8  1  0
  8  9  1  0
  5 10  2  0
 10 11  1  0
 10 12  1  0
  4 13  1  0
  6 13  1  0
  9 14  2  0
  4 15  2  0
 11 15  2  0
M  END
$$$$
