
     RDKit          3D

 31 35  0  0  0  0  0  0  0  0999 V2000
  129.5033  130.0631  122.3637 C   0  0  0  0  0  0  0  0  0  0  0  0
  130.4818  130.6409  121.7849 C   0  0  0  0  0  0  0  0  0  0  0  0
  131.4657  130.0196  121.0409 C   0  0  0  0  0  0  0  0  0  0  0  0
  130.7560  131.9277  122.0848 C   0  0  0  0  0  0  0  0  0  0  0  0
  132.7165  129.5164  121.4272 C   0  0  0  0  0  0  0  0  0  0  0  0
  128.6316  130.6300  123.0265 N   0  0  0  0  0  0  0  0  0  0  0  0
  133.7803  129.1042  120.7206 C   0  0  0  0  0  0  0  0  0  0  0  0
  131.5769  132.8290  121.3895 C   0  0  0  0  0  0  0  0  0  0  0  0
  134.2269  129.7496  119.6644 C   0  0  0  0  0  0  0  0  0  0  0  0
  133.7275  130.9670  119.3511 C   0  0  0  0  0  0  0  0  0  0  0  0
  130.3621  132.5664  123.1502 C   0  0  0  0  0  0  0  0  0  0  0  0
  129.5727  132.1321  124.1609 N   0  0  0  0  0  0  0  0  0  0  0  0
  135.3284  129.1656  119.0818 C   0  0  0  0  0  0  0  0  0  0  0  0
  129.3304  130.8236  124.0338 C   0  0  0  0  0  0  0  0  0  0  0  0
  130.8190  133.8684  123.3717 N   0  0  0  0  0  0  0  0  0  0  0  0
  132.3813  132.5309  120.4639 C   0  0  0  0  0  0  0  0  0  0  0  0
  131.6739  134.1032  121.8493 C   0  0  0  0  0  0  0  0  0  0  0  0
  129.8841  130.1404  125.0654 N   0  0  0  0  0  0  0  0  0  0  0  0
  132.6804  133.4331  119.4338 C   0  0  0  0  0  0  0  0  0  0  0  0
  133.4974  133.2986  118.4029 C   0  0  0  0  0  0  0  0  0  0  0  0
  135.9756  129.7313  118.1379 C   0  0  0  0  0  0  0  0  0  0  0  0
  135.9039  128.0037  119.6284 C   0  0  0  0  0  0  0  0  0  0  0  0
  137.2557  129.5263  117.8461 C   0  0  0  0  0  0  0  0  0  0  0  0
  137.9112  130.2500  116.9643 O   0  0  0  0  0  0  0  0  0  0  0  0
  132.0512  134.5329  119.8259 N   0  0  0  0  0  0  0  0  0  0  0  0
  131.3813  134.6398  120.8402 N   0  0  0  0  0  0  0  0  0  0  0  0
  137.7456  128.5628  118.5727 C   0  0  0  0  0  0  0  0  0  0  0  0
  139.1050  128.1836  118.4501 O   0  0  0  0  0  0  0  0  0  0  0  0
  137.0322  127.9495  119.6007 N   0  0  0  0  0  0  0  0  0  0  0  0
  134.1011  132.6716  117.8796 N   0  0  0  0  0  0  0  0  0  0  0  0
  134.0009  131.4539  118.0613 C   0  0  0  0  0  0  0  0  0  0  0  0
  1  2  1  0
  2  3  2  0
  2  4  1  0
  3  5  1  0
  1  6  2  0
  5  7  2  0
  4  8  1  0
  7  9  1  0
  9 10  2  0
  4 11  2  0
 11 12  1  0
  9 13  1  0
  6 14  1  0
 12 14  2  0
 11 15  1  0
  8 16  1  0
  8 17  2  0
 15 17  1  0
 14 18  1  0
 16 19  2  0
 19 20  1  0
 13 21  2  0
 13 22  1  0
 21 23  1  0
 23 24  1  0
 19 25  1  0
 17 26  1  0
 25 26  2  0
 23 27  2  0
 27 28  1  0
 22 29  2  0
 27 29  1  0
 20 30  2  0
 10 31  1  0
 30 31  1  0
M  END
$$$$
