
     RDKit          3D

 21 22  0  0  0  0  0  0  0  0999 V2000
  129.5033  130.0631  122.3637 C   0  0  0  0  0  0  0  0  0  0  0  0
  130.4818  130.6409  121.7849 C   0  0  0  0  0  0  0  0  0  0  0  0
  131.4657  130.0196  121.0409 C   0  0  0  0  0  0  0  0  0  0  0  0
  130.7560  131.9277  122.0848 C   0  0  0  0  0  0  0  0  0  0  0  0
  132.7165  129.5164  121.4272 C   0  0  0  0  0  0  0  0  0  0  0  0
  128.6316  130.6300  123.0265 N   0  0  0  0  0  0  0  0  0  0  0  0
  133.7803  129.1042  120.7206 C   0  0  0  0  0  0  0  0  0  0  0  0
  134.8578  128.2073  121.0726 N   0  0  0  0  0  0  0  0  0  0  0  0
  133.8208  129.8230  119.5629 C   0  0  0  0  0  0  0  0  0  0  0  0
  130.1218  132.4746  123.2057 C   0  0  0  0  0  0  0  0  0  0  0  0
  134.5644  129.4834  118.5573 C   0  0  0  0  0  0  0  0  0  0  0  0
  133.1612  130.9560  119.6439 C   0  0  0  0  0  0  0  0  0  0  0  0
  135.2445  128.3669  118.2877 N   0  0  0  0  0  0  0  0  0  0  0  0
  136.1738  128.0151  117.2339 C   0  0  0  0  0  0  0  0  0  0  0  0
  129.0314  131.9562  123.1597 N   0  0  0  0  0  0  0  0  0  0  0  0
  134.7108  130.6486  117.8548 N   0  0  0  0  0  0  0  0  0  0  0  0
  133.7633  132.0687  119.1519 C   0  0  0  0  0  0  0  0  0  0  0  0
  137.0740  126.8704  117.0690 C   0  0  0  0  0  0  0  0  0  0  0  0
  130.7227  133.3383  123.8802 N   0  0  0  0  0  0  0  0  0  0  0  0
  135.0357  132.1346  118.8766 C   0  0  0  0  0  0  0  0  0  0  0  0
  135.9580  132.7659  118.8048 O   0  0  0  0  0  0  0  0  0  0  0  0
  1  2  1  0
  2  3  2  3
  2  4  1  0
  3  5  1  0
  1  6  2  0
  5  7  2  3
  7  8  1  0
  7  9  1  0
  4 10  2  0
  9 11  1  0
  9 12  2  0
 11 13  2  3
 13 14  1  0
  6 15  1  0
 10 15  1  0
 11 16  1  0
 12 17  1  0
 14 18  1  0
 10 19  1  0
 16 20  1  0
 17 20  1  0
 20 21  2  0
M  END
$$$$
