
     RDKit          3D

 22 24  0  0  0  0  0  0  0  0999 V2000
  129.5033  130.0631  122.3637 C   0  0  0  0  0  0  0  0  0  0  0  0
  130.4818  130.6409  121.7849 C   0  0  0  0  0  0  0  0  0  0  0  0
  131.4657  130.0196  121.0409 C   0  0  0  0  0  0  0  0  0  0  0  0
  130.7560  131.9277  122.0848 C   0  0  0  0  0  0  0  0  0  0  0  0
  129.7992  132.7865  122.6588 C   0  0  0  0  0  0  0  0  0  0  0  0
  132.0406  132.5959  121.9262 C   0  0  0  0  0  0  0  0  0  0  0  0
  132.6881  130.5146  120.8877 C   0  0  0  0  0  0  0  0  0  0  0  0
  133.0445  131.5689  121.6836 N   0  0  0  0  0  0  0  0  0  0  0  0
  133.5814  129.9806  120.1015 C   0  0  0  0  0  0  0  0  0  0  0  0
  133.3970  128.9254  119.3640 N   0  0  0  0  0  0  0  0  0  0  0  0
  132.4166  133.9748  122.0984 N   0  0  0  0  0  0  0  0  0  0  0  0
  134.7274  130.6554  120.1351 N   0  0  0  0  0  0  0  0  0  0  0  0
  131.4721  134.7898  122.4722 C   0  0  0  0  0  0  0  0  0  0  0  0
  135.6704  130.4261  119.4933 C   0  0  0  0  0  0  0  0  0  0  0  0
  128.7333  132.5977  123.0747 N   0  0  0  0  0  0  0  0  0  0  0  0
  135.5123  129.2929  118.6760 C   0  0  0  0  0  0  0  0  0  0  0  0
  136.8805  131.0721  119.6474 N   0  0  0  0  0  0  0  0  0  0  0  0
  128.6625  130.8573  123.1148 C   0  0  0  0  0  0  0  0  0  0  0  0
  130.4363  134.0058  122.7302 N   0  0  0  0  0  0  0  0  0  0  0  0
  136.6126  128.7970  117.8539 C   0  0  0  0  0  0  0  0  0  0  0  0
  136.8334  127.4240  117.3437 C   0  0  0  0  0  0  0  0  0  0  0  0
  135.6786  126.7960  116.7086 C   0  0  0  0  0  0  0  0  0  0  0  0
  1  2  1  0
  2  3  2  0
  2  4  1  0
  4  5  2  0
  4  6  1  0
  3  7  1  0
  6  8  1  0
  7  8  1  0
  7  9  2  3
  9 10  1  0
  6 11  2  0
  9 12  1  0
 11 13  1  0
 12 14  1  0
  5 15  1  0
 14 16  2  3
 14 17  1  0
  1 18  2  0
 15 18  1  0
  5 19  1  0
 13 19  2  0
 16 20  1  0
 20 21  1  0
 21 22  1  0
M  END
$$$$
