
     RDKit          3D

 25 28  0  0  0  0  0  0  0  0999 V2000
  129.5033  130.0631  122.3637 C   0  0  0  0  0  0  0  0  0  0  0  0
  130.4818  130.6409  121.7849 C   0  0  0  0  0  0  0  0  0  0  0  0
  131.4657  130.0196  121.0409 C   0  0  0  0  0  0  0  0  0  0  0  0
  130.7560  131.9277  122.0848 C   0  0  0  0  0  0  0  0  0  0  0  0
  129.7992  132.7865  122.6588 C   0  0  0  0  0  0  0  0  0  0  0  0
  132.0406  132.5959  121.9262 C   0  0  0  0  0  0  0  0  0  0  0  0
  132.6881  130.5146  120.8877 C   0  0  0  0  0  0  0  0  0  0  0  0
  128.3191  130.3730  122.7267 N   0  0  0  0  0  0  0  0  0  0  0  0
  133.0490  131.5034  121.7683 N   0  0  0  0  0  0  0  0  0  0  0  0
  132.2148  133.8442  121.9654 N   0  0  0  0  0  0  0  0  0  0  0  0
  133.5630  129.9214  120.1179 C   0  0  0  0  0  0  0  0  0  0  0  0
  128.9031  132.4204  123.5868 N   0  0  0  0  0  0  0  0  0  0  0  0
  133.3167  128.8377  119.3307 N   0  0  0  0  0  0  0  0  0  0  0  0
  134.7399  130.5129  120.1543 N   0  0  0  0  0  0  0  0  0  0  0  0
  135.5205  130.5338  119.3278 C   0  0  0  0  0  0  0  0  0  0  0  0
  135.1816  129.7711  118.1981 C   0  0  0  0  0  0  0  0  0  0  0  0
  128.1730  131.7542  122.6734 N   0  0  0  0  0  0  0  0  0  0  0  0
  136.7127  131.1902  119.4911 C   0  0  0  0  0  0  0  0  0  0  0  0
  134.2044  128.8235  118.1114 N   0  0  0  0  0  0  0  0  0  0  0  0
  137.6784  131.2596  120.2861 O   0  0  0  0  0  0  0  0  0  0  0  0
  131.3998  134.6295  122.4530 C   0  0  0  0  0  0  0  0  0  0  0  0
  136.9902  131.9565  118.4850 O   0  0  0  0  0  0  0  0  0  0  0  0
  135.9963  130.1062  117.1366 C   0  0  0  0  0  0  0  0  0  0  0  0
  138.5211  130.0953  120.2923 C   0  0  0  0  0  0  0  0  0  0  0  0
  130.1592  134.0777  122.2874 N   0  0  0  0  0  0  0  0  0  0  0  0
  1  2  1  0
  2  3  2  0
  2  4  1  0
  4  5  2  0
  4  6  1  0
  3  7  1  0
  1  8  2  0
  6  9  1  0
  7  9  1  0
  6 10  2  0
  7 11  2  3
  5 12  1  0
 11 13  1  0
 11 14  1  0
 14 15  1  0
 15 16  2  0
  8 17  1  0
 12 17  2  0
 15 18  1  0
 13 19  2  0
 16 19  1  0
 18 20  1  0
 10 21  1  0
 18 22  2  0
 16 23  1  0
 20 24  1  0
  5 25  1  0
 21 25  2  0
M  END
$$$$
