
     RDKit          3D

 25 29  0  0  0  0  0  0  0  0999 V2000
  129.5033  130.0631  122.3637 C   0  0  0  0  0  0  0  0  0  0  0  0
  130.4818  130.6409  121.7849 C   0  0  0  0  0  0  0  0  0  0  0  0
  131.4657  130.0196  121.0409 C   0  0  0  0  0  0  0  0  0  0  0  0
  130.7560  131.9277  122.0848 C   0  0  0  0  0  0  0  0  0  0  0  0
  129.7992  132.7865  122.6588 C   0  0  0  0  0  0  0  0  0  0  0  0
  132.0406  132.5959  121.9262 C   0  0  0  0  0  0  0  0  0  0  0  0
  132.6881  130.5146  120.8877 C   0  0  0  0  0  0  0  0  0  0  0  0
  133.0445  131.5689  121.6836 N   0  0  0  0  0  0  0  0  0  0  0  0
  133.5814  129.9806  120.1015 C   0  0  0  0  0  0  0  0  0  0  0  0
  133.3970  128.9254  119.3640 N   0  0  0  0  0  0  0  0  0  0  0  0
  132.4166  133.9748  122.0984 N   0  0  0  0  0  0  0  0  0  0  0  0
  134.7274  130.6554  120.1351 N   0  0  0  0  0  0  0  0  0  0  0  0
  131.4721  134.7898  122.4722 C   0  0  0  0  0  0  0  0  0  0  0  0
  135.6704  130.4261  119.4933 C   0  0  0  0  0  0  0  0  0  0  0  0
  128.5372  130.8256  123.0267 C   0  0  0  0  0  0  0  0  0  0  0  0
  135.5163  129.2903  118.6684 C   0  0  0  0  0  0  0  0  0  0  0  0
  136.6996  130.9794  119.5408 N   0  0  0  0  0  0  0  0  0  0  0  0
  137.5020  130.6580  118.5446 C   0  0  0  0  0  0  0  0  0  0  0  0
  131.2994  136.0036  122.4576 N   0  0  0  0  0  0  0  0  0  0  0  0
  128.8328  132.1603  122.9804 N   0  0  0  0  0  0  0  0  0  0  0  0
  130.1771  134.0501  122.8472 N   0  0  0  0  0  0  0  0  0  0  0  0
  134.3263  128.4759  118.5741 C   0  0  0  0  0  0  0  0  0  0  0  0
  136.6821  129.1297  117.9350 C   0  0  0  0  0  0  0  0  0  0  0  0
  137.1054  128.4077  117.1845 O   0  0  0  0  0  0  0  0  0  0  0  0
  138.4465  131.2251  118.0746 O   0  0  0  0  0  0  0  0  0  0  0  0
  1  2  1  0
  2  3  2  0
  2  4  1  0
  4  5  2  0
  4  6  1  0
  3  7  1  0
  6  8  1  0
  7  8  1  0
  7  9  2  3
  9 10  1  0
  6 11  2  0
  9 12  1  0
 11 13  1  0
 12 14  1  0
  1 15  2  0
 14 16  2  0
 14 17  1  0
 17 18  1  0
 13 19  1  0
  5 20  1  0
 15 20  1  0
  5 21  1  0
 13 21  2  0
 10 22  2  0
 16 22  1  0
 16 23  1  0
 18 23  1  0
 23 24  2  0
 18 25  2  0
M  END
$$$$
