
     RDKit          3D

 27 31  0  0  0  0  0  0  0  0999 V2000
  129.5033  130.0631  122.3637 C   0  0  0  0  0  0  0  0  0  0  0  0
  130.4818  130.6409  121.7849 C   0  0  0  0  0  0  0  0  0  0  0  0
  131.4657  130.0196  121.0409 C   0  0  0  0  0  0  0  0  0  0  0  0
  130.6676  131.9777  122.0469 C   0  0  0  0  0  0  0  0  0  0  0  0
  132.7176  129.5219  121.4432 C   0  0  0  0  0  0  0  0  0  0  0  0
  133.7278  128.9174  120.8356 C   0  0  0  0  0  0  0  0  0  0  0  0
  134.4301  127.9359  121.0484 N   0  0  0  0  0  0  0  0  0  0  0  0
  134.0713  129.8776  120.0062 C   0  0  0  0  0  0  0  0  0  0  0  0
  135.3547  127.7339  120.0879 C   0  0  0  0  0  0  0  0  0  0  0  0
  133.7727  131.1394  120.0762 C   0  0  0  0  0  0  0  0  0  0  0  0
  135.6673  128.7428  119.2639 C   0  0  0  0  0  0  0  0  0  0  0  0
  131.9436  132.5872  121.9531 C   0  0  0  0  0  0  0  0  0  0  0  0
  136.7647  128.5766  118.5687 C   0  0  0  0  0  0  0  0  0  0  0  0
  129.7774  132.6186  122.3602 N   0  0  0  0  0  0  0  0  0  0  0  0
  135.0088  129.8972  119.0764 C   0  0  0  0  0  0  0  0  0  0  0  0
  128.5128  130.7579  123.0976 N   0  0  0  0  0  0  0  0  0  0  0  0
  136.7690  129.1336  117.2968 C   0  0  0  0  0  0  0  0  0  0  0  0
  137.7635  127.9029  119.0437 O   0  0  0  0  0  0  0  0  0  0  0  0
  132.2861  133.7736  122.7036 N   0  0  0  0  0  0  0  0  0  0  0  0
  135.1987  130.8157  118.1227 C   0  0  0  0  0  0  0  0  0  0  0  0
  134.2104  132.1044  119.2915 N   0  0  0  0  0  0  0  0  0  0  0  0
  135.6721  129.8836  116.7868 C   0  0  0  0  0  0  0  0  0  0  0  0
  135.0701  131.9035  117.9572 C   0  0  0  0  0  0  0  0  0  0  0  0
  132.7496  131.9858  121.1297 N   0  0  0  0  0  0  0  0  0  0  0  0
  137.6582  128.8563  116.3107 O   0  0  0  0  0  0  0  0  0  0  0  0
  135.3215  132.8275  117.3376 N   0  0  0  0  0  0  0  0  0  0  0  0
  128.7747  132.0870  122.9114 C   0  0  0  0  0  0  0  0  0  0  0  0
  1  2  1  0
  2  3  2  0
  2  4  1  0
  3  5  1  0
  5  6  1  0
  6  7  2  0
  6  8  1  0
  7  9  1  0
  8 10  2  0
  9 11  2  0
  4 12  1  0
 11 13  1  0
  4 14  2  0
  8 15  1  0
 11 15  1  0
  1 16  2  0
 13 17  1  0
 13 18  2  0
 12 19  1  0
 15 20  2  0
 10 21  1  0
 17 22  1  0
 20 22  1  0
 20 23  1  0
 21 23  2  0
 10 24  1  0
 12 24  2  0
 17 25  2  0
 23 26  1  0
 14 27  1  0
 16 27  1  0
M  END
$$$$
