
     RDKit          3D

  9  9  0  0  0  0  0  0  0  0999 V2000
  136.7829  127.1874  117.7496 C   0  0  0  0  0  0  0  0  0  0  0  0
  137.5843  128.0712  118.0377 C   0  0  0  0  0  0  0  0  0  0  0  0
  135.8488  127.3206  116.9274 C   0  0  0  0  0  0  0  0  0  0  0  0
  137.3884  129.3410  117.5642 C   0  0  0  0  0  0  0  0  0  0  0  0
  138.0140  130.5498  118.1216 O   0  0  0  0  0  0  0  0  0  0  0  0
  138.8812  130.4200  119.1404 C   0  0  0  0  0  0  0  0  0  0  0  0
  136.1311  129.5861  116.7611 C   0  0  0  0  0  0  0  0  0  0  0  0
  135.7840  130.9195  116.4178 F   0  0  0  0  0  0  0  0  0  0  0  0
  135.3251  128.6075  116.5064 C   0  0  0  0  0  0  0  0  0  0  0  0
  1  2  1  0
  1  3  2  0
  2  4  2  0
  4  5  1  0
  5  6  1  0
  4  7  1  0
  7  8  1  0
  3  9  1  0
  7  9  2  0
M  END
$$$$

     RDKit          3D

  9  9  0  0  0  0  0  0  0  0999 V2000
  129.3917  130.7364  122.2138 C   0  0  0  0  0  0  0  0  0  0  0  0
  130.6166  130.9990  122.6875 C   0  0  0  0  0  0  0  0  0  0  0  0
  129.0398  131.1366  121.0222 C   0  0  0  0  0  0  0  0  0  0  0  0
  127.7502  130.7325  120.4469 C   0  0  0  0  0  0  0  0  0  0  0  0
  126.7033  131.5693  120.6283 O   0  0  0  0  0  0  0  0  0  0  0  0
  131.5800  131.5623  121.9432 C   0  0  0  0  0  0  0  0  0  0  0  0
  127.7081  129.5363  119.8867 C   0  0  0  0  0  0  0  0  0  0  0  0
  130.1897  131.5432  120.1619 C   0  0  0  0  0  0  0  0  0  0  0  0
  131.3946  131.8021  120.6388 C   0  0  0  0  0  0  0  0  0  0  0  0
  1  2  2  0
  1  3  1  0
  3  4  1  0
  4  5  1  0
  2  6  1  0
  4  7  2  0
  3  8  2  0
  6  9  2  0
  8  9  1  0
M  END
$$$$

     RDKit          3D

  9  9  0  0  0  0  0  0  0  0999 V2000
  129.1856  130.9948  121.1414 C   0  0  0  0  0  0  0  0  0  0  0  0
  130.3787  130.9362  121.5666 C   0  0  0  0  0  0  0  0  0  0  0  0
  130.7996  131.3884  122.8897 C   0  0  0  0  0  0  0  0  0  0  0  0
  129.7344  131.7255  123.7484 C   0  0  0  0  0  0  0  0  0  0  0  0
  131.4596  130.3615  120.7286 C   0  0  0  0  0  0  0  0  0  0  0  0
  132.8061  130.2311  121.1962 C   0  0  0  0  0  0  0  0  0  0  0  0
  132.2375  131.4245  123.2957 C   0  0  0  0  0  0  0  0  0  0  0  0
  128.1605  131.4172  122.1122 F   0  0  0  0  0  0  0  0  0  0  0  0
  133.1163  130.7767  122.4577 C   0  0  0  0  0  0  0  0  0  0  0  0
  1  2  2  3
  2  3  1  0
  3  4  2  0
  2  5  1  0
  5  6  2  0
  3  7  1  0
  1  8  1  0
  6  9  1  0
  7  9  2  0
M  END
$$$$

     RDKit          3D

  9 10  0  0  0  0  0  0  0  0999 V2000
  136.7107  126.9573  117.2849 C   0  0  0  0  0  0  0  0  0  0  0  0
  137.3979  127.2008  118.3603 O   0  0  0  0  0  0  0  0  0  0  0  0
  135.7356  127.7006  117.2555 C   0  0  0  0  0  0  0  0  0  0  0  0
  135.7153  128.6135  117.9317 C   0  0  0  0  0  0  0  0  0  0  0  0
  136.9087  128.3839  118.9137 C   0  0  0  0  0  0  0  0  0  0  0  0
  134.9660  129.8520  118.3603 C   0  0  0  0  0  0  0  0  0  0  0  0
  137.4146  129.1577  119.8301 C   0  0  0  0  0  0  0  0  0  0  0  0
  135.4668  130.6400  119.3840 C   0  0  0  0  0  0  0  0  0  0  0  0
  136.7820  130.2934  120.0806 C   0  0  0  0  0  0  0  0  0  0  0  0
  1  2  1  0
  1  3  2  0
  3  4  1  0
  2  5  1  0
  4  5  2  0
  4  6  1  0
  5  7  1  0
  6  8  2  0
  7  9  2  0
  8  9  1  0
M  END
$$$$

     RDKit          3D

  9  9  0  0  0  0  0  0  0  0999 V2000
  135.6132  130.9736  118.1529 C   0  0  0  0  0  0  0  0  0  0  0  0
  134.5165  130.4627  118.4787 C   0  0  0  0  0  0  0  0  0  0  0  0
  135.5794  132.1830  117.6578 C   0  0  0  0  0  0  0  0  0  0  0  0
  134.4074  129.1246  119.0886 O   0  0  0  0  0  0  0  0  0  0  0  0
  133.5960  131.4555  118.3824 C   0  0  0  0  0  0  0  0  0  0  0  0
  136.7350  130.0566  118.2204 O   0  0  0  0  0  0  0  0  0  0  0  0
  137.9619  130.6264  118.4818 C   0  0  0  0  0  0  0  0  0  0  0  0
  136.6991  133.0737  117.1240 Cl  0  0  0  0  0  0  0  0  0  0  0  0
  134.1917  132.6422  117.9512 C   0  0  0  0  0  0  0  0  0  0  0  0
  1  2  1  0
  1  3  2  0
  2  4  1  0
  2  5  2  0
  1  6  1  0
  6  7  1  0
  3  8  1  0
  3  9  1  0
  5  9  1  0
M  END
$$$$

     RDKit          3D

  9  9  0  0  0  0  0  0  0  0999 V2000
  136.7561  127.5022  117.4092 C   0  0  0  0  0  0  0  0  0  0  0  0
  135.9448  128.4728  117.6758 C   0  0  0  0  0  0  0  0  0  0  0  0
  134.7290  128.5429  118.3636 O   0  0  0  0  0  0  0  0  0  0  0  0
  137.0377  126.7127  118.5394 C   0  0  0  0  0  0  0  0  0  0  0  0
  134.6474  129.6561  119.1865 C   0  0  0  0  0  0  0  0  0  0  0  0
  135.8569  129.9236  117.3548 C   0  0  0  0  0  0  0  0  0  0  0  0
  134.0339  129.6278  120.2932 C   0  0  0  0  0  0  0  0  0  0  0  0
  135.3332  130.4379  118.3127 C   0  0  0  0  0  0  0  0  0  0  0  0
  135.0119  131.7155  118.7309 O   0  0  0  0  0  0  0  0  0  0  0  0
  1  2  1  0
  2  3  1  0
  1  4  1  0
  3  5  1  0
  2  6  2  0
  5  7  2  0
  5  8  1  0
  6  8  1  0
  8  9  2  0
M  END
$$$$

     RDKit          3D

  9  9  0  0  0  0  0  0  0  0999 V2000
  136.7452  126.8353  117.7916 Cl  0  0  0  0  0  0  0  0  0  0  0  0
  136.9070  128.2812  117.9086 C   0  0  0  0  0  0  0  0  0  0  0  0
  136.3792  129.0040  116.9303 C   0  0  0  0  0  0  0  0  0  0  0  0
  137.5858  128.7053  119.1518 C   0  0  0  0  0  0  0  0  0  0  0  0
  137.6696  130.0741  119.4379 C   0  0  0  0  0  0  0  0  0  0  0  0
  135.5016  128.5378  115.8192 Cl  0  0  0  0  0  0  0  0  0  0  0  0
  138.4356  130.5010  120.5448 C   0  0  0  0  0  0  0  0  0  0  0  0
  136.4973  130.5494  117.0522 C   0  0  0  0  0  0  0  0  0  0  0  0
  137.0997  131.0398  118.2614 C   0  0  0  0  0  0  0  0  0  0  0  0
  1  2  1  0
  2  3  2  0
  2  4  1  0
  4  5  2  0
  3  6  1  0
  5  7  1  0
  3  8  1  0
  5  9  1  0
  8  9  2  0
M  END
$$$$

     RDKit          3D

  9  9  0  0  0  0  0  0  0  0999 V2000
  128.3229  130.7658  121.7641 C   0  0  0  0  0  0  0  0  0  0  0  0
  129.4589  130.8440  122.3670 C   0  0  0  0  0  0  0  0  0  0  0  0
  128.3019  131.1033  120.5078 C   0  0  0  0  0  0  0  0  0  0  0  0
  129.6208  130.6152  123.9773 Cl  0  0  0  0  0  0  0  0  0  0  0  0
  127.0120  130.8646  119.7406 C   0  0  0  0  0  0  0  0  0  0  0  0
  129.5252  131.4804  120.0819 C   0  0  0  0  0  0  0  0  0  0  0  0
  127.0133  131.5728  118.4636 C   0  0  0  0  0  0  0  0  0  0  0  0
  127.2266  131.0313  117.3026 F   0  0  0  0  0  0  0  0  0  0  0  0
  130.3892  131.4109  120.9344 C   0  0  0  0  0  0  0  0  0  0  0  0
  1  2  2  0
  1  3  1  0
  2  4  1  0
  3  5  1  0
  3  6  2  0
  5  7  2  3
  7  8  1  0
  2  9  1  0
  6  9  1  0
M  END
$$$$

     RDKit          3D

  9  9  0  0  0  0  0  0  0  0999 V2000
  129.1238  130.4780  122.7022 Cl  0  0  0  0  0  0  0  0  0  0  0  0
  130.0489  131.1433  121.9935 C   0  0  0  0  0  0  0  0  0  0  0  0
  131.2518  131.6806  122.6389 C   0  0  0  0  0  0  0  0  0  0  0  0
  132.2949  132.3740  121.9200 C   0  0  0  0  0  0  0  0  0  0  0  0
  131.2390  131.3454  123.9707 C   0  0  0  0  0  0  0  0  0  0  0  0
  129.9083  131.2684  120.5731 C   0  0  0  0  0  0  0  0  0  0  0  0
  132.9922  133.3251  122.5273 F   0  0  0  0  0  0  0  0  0  0  0  0
  131.9250  132.4353  120.6524 C   0  0  0  0  0  0  0  0  0  0  0  0
  130.9402  131.9338  119.8801 C   0  0  0  0  0  0  0  0  0  0  0  0
  1  2  1  0
  2  3  2  0
  3  4  1  0
  3  5  1  0
  2  6  1  0
  4  7  1  0
  4  8  2  0
  6  9  2  0
  8  9  1  0
M  END
$$$$

     RDKit          3D

  9  9  0  0  0  0  0  0  0  0999 V2000
  135.6132  130.9736  118.1529 C   0  0  0  0  0  0  0  0  0  0  0  0
  134.5165  130.4627  118.4787 C   0  0  0  0  0  0  0  0  0  0  0  0
  136.9451  130.3871  118.0993 C   0  0  0  0  0  0  0  0  0  0  0  0
  136.7940  129.1318  118.5938 C   0  0  0  0  0  0  0  0  0  0  0  0
  138.0694  128.3439  118.6631 C   0  0  0  0  0  0  0  0  0  0  0  0
  135.7413  128.7530  119.0493 C   0  0  0  0  0  0  0  0  0  0  0  0
  134.5530  129.4134  118.8818 C   0  0  0  0  0  0  0  0  0  0  0  0
  139.2079  129.0466  118.9360 O   0  0  0  0  0  0  0  0  0  0  0  0
  137.6514  127.1469  118.6105 O   0  0  0  0  0  0  0  0  0  0  0  0
  1  2  1  0
  1  3  2  0
  3  4  1  0
  4  5  1  0
  4  6  2  0
  2  7  2  0
  6  7  1  0
  5  8  1  0
  5  9  2  0
M  END
$$$$

     RDKit          3D

  9  9  0  0  0  0  0  0  0  0999 V2000
  129.5804  130.4836  122.4334 C   0  0  0  0  0  0  0  0  0  0  0  0
  130.7593  130.8591  122.9295 C   0  0  0  0  0  0  0  0  0  0  0  0
  129.0571  131.1873  121.5564 C   0  0  0  0  0  0  0  0  0  0  0  0
  131.3863  130.1413  124.2900 Cl  0  0  0  0  0  0  0  0  0  0  0  0
  131.3935  131.9843  122.3653 C   0  0  0  0  0  0  0  0  0  0  0  0
  127.7470  130.7164  121.0397 C   0  0  0  0  0  0  0  0  0  0  0  0
  129.7417  132.1234  121.1671 C   0  0  0  0  0  0  0  0  0  0  0  0
  130.8528  132.6832  121.4859 C   0  0  0  0  0  0  0  0  0  0  0  0
  127.7302  129.6721  120.1097 O   0  0  0  0  0  0  0  0  0  0  0  0
  1  2  2  0
  1  3  1  0
  2  4  1  0
  2  5  1  0
  3  6  1  0
  3  7  2  0
  5  8  2  0
  7  8  1  0
  6  9  2  0
M  END
$$$$

     RDKit          3D

  9  9  0  0  0  0  0  0  0  0999 V2000
  129.0694  131.8049  121.7010 C   0  0  0  0  0  0  0  0  0  0  0  0
  130.2348  132.2605  122.1189 C   0  0  0  0  0  0  0  0  0  0  0  0
  131.2836  132.4054  121.5366 C   0  0  0  0  0  0  0  0  0  0  0  0
  132.4986  133.0858  122.0933 F   0  0  0  0  0  0  0  0  0  0  0  0
  130.4155  132.6457  123.4503 F   0  0  0  0  0  0  0  0  0  0  0  0
  128.9804  131.4282  120.3775 C   0  0  0  0  0  0  0  0  0  0  0  0
  127.7721  130.8154  119.8102 C   0  0  0  0  0  0  0  0  0  0  0  0
  130.2947  131.5508  119.8288 C   0  0  0  0  0  0  0  0  0  0  0  0
  131.4605  132.0707  120.2150 C   0  0  0  0  0  0  0  0  0  0  0  0
  1  2  1  0
  2  3  2  0
  3  4  1  0
  2  5  1  0
  1  6  2  0
  6  7  1  0
  6  8  1  0
  3  9  1  0
  8  9  2  0
M  END
$$$$

     RDKit          3D

  9  9  0  0  0  0  0  0  0  0999 V2000
  128.5500  130.6278  121.3982 C   0  0  0  0  0  0  0  0  0  0  0  0
  129.6438  130.7344  122.0921 C   0  0  0  0  0  0  0  0  0  0  0  0
  130.8842  130.7171  121.8464 C   0  0  0  0  0  0  0  0  0  0  0  0
  131.9760  130.8711  122.8813 C   0  0  0  0  0  0  0  0  0  0  0  0
  128.7497  130.4087  120.3528 O   0  0  0  0  0  0  0  0  0  0  0  0
  130.8330  130.4017  120.4323 C   0  0  0  0  0  0  0  0  0  0  0  0
  129.8090  130.2124  119.6813 C   0  0  0  0  0  0  0  0  0  0  0  0
  132.2708  130.1039  119.7910 C   0  0  0  0  0  0  0  0  0  0  0  0
  133.2987  130.0357  119.7500 N   0  0  0  0  0  0  0  0  0  0  0  0
  1  2  2  0
  2  3  1  0
  3  4  1  0
  1  5  1  0
  3  6  2  0
  5  7  1  0
  6  7  1  0
  6  8  1  0
  8  9  3  0
M  END
$$$$

     RDKit          3D

  9  9  0  0  0  0  0  0  0  0999 V2000
  129.1856  130.9948  121.1414 C   0  0  0  0  0  0  0  0  0  0  0  0
  130.3787  130.9362  121.5666 C   0  0  0  0  0  0  0  0  0  0  0  0
  131.3350  130.4509  120.9903 C   0  0  0  0  0  0  0  0  0  0  0  0
  131.0799  129.7544  119.8144 C   0  0  0  0  0  0  0  0  0  0  0  0
  128.0650  131.3831  121.8486 F   0  0  0  0  0  0  0  0  0  0  0  0
  129.7674  129.7787  119.3424 C   0  0  0  0  0  0  0  0  0  0  0  0
  128.8301  130.3897  120.0315 C   0  0  0  0  0  0  0  0  0  0  0  0
  132.5806  129.2898  119.2431 C   0  0  0  0  0  0  0  0  0  0  0  0
  133.5033  129.7256  119.7547 O   0  0  0  0  0  0  0  0  0  0  0  0
  1  2  2  0
  2  3  1  0
  3  4  2  0
  1  5  1  0
  4  6  1  0
  1  7  1  0
  6  7  2  0
  4  8  1  0
  8  9  2  0
M  END
$$$$

     RDKit          3D

  9  9  0  0  0  0  0  0  0  0999 V2000
  135.6132  130.9736  118.1529 C   0  0  0  0  0  0  0  0  0  0  0  0
  134.5165  130.4627  118.4787 C   0  0  0  0  0  0  0  0  0  0  0  0
  136.9451  130.3871  118.0993 C   0  0  0  0  0  0  0  0  0  0  0  0
  136.7940  129.1318  118.5938 C   0  0  0  0  0  0  0  0  0  0  0  0
  135.3967  132.5533  117.6029 C   0  0  0  0  0  0  0  0  0  0  0  0
  133.3003  131.0950  118.5746 O   0  0  0  0  0  0  0  0  0  0  0  0
  138.0814  128.3650  118.8008 C   0  0  0  0  0  0  0  0  0  0  0  0
  134.7120  129.1459  118.8602 O   0  0  0  0  0  0  0  0  0  0  0  0
  135.8954  128.5452  118.9923 C   0  0  0  0  0  0  0  0  0  0  0  0
  1  2  1  0
  1  3  2  0
  3  4  1  0
  1  5  1  0
  2  6  2  0
  4  7  1  0
  2  8  1  0
  4  9  2  0
  8  9  1  0
M  END
$$$$

     RDKit          3D

  9  9  0  0  0  0  0  0  0  0999 V2000
  128.7928  130.3683  122.2574 Cl  0  0  0  0  0  0  0  0  0  0  0  0
  129.6904  131.2402  121.8012 C   0  0  0  0  0  0  0  0  0  0  0  0
  131.0094  131.4679  122.5182 C   0  0  0  0  0  0  0  0  0  0  0  0
  129.5432  131.8702  120.6464 C   0  0  0  0  0  0  0  0  0  0  0  0
  131.9293  132.3559  121.9380 C   0  0  0  0  0  0  0  0  0  0  0  0
  128.3467  131.8222  119.9125 F   0  0  0  0  0  0  0  0  0  0  0  0
  131.5585  132.9590  120.6988 C   0  0  0  0  0  0  0  0  0  0  0  0
  132.6051  133.9296  120.1852 C   0  0  0  0  0  0  0  0  0  0  0  0
  130.4155  132.7556  120.0795 C   0  0  0  0  0  0  0  0  0  0  0  0
  1  2  1  0
  2  3  2  0
  2  4  1  0
  3  5  1  0
  4  6  1  0
  5  7  2  0
  7  8  1  0
  4  9  2  0
  7  9  1  0
M  END
$$$$

     RDKit          3D

  9  9  0  0  0  0  0  0  0  0999 V2000
  128.7928  130.3683  122.2574 Cl  0  0  0  0  0  0  0  0  0  0  0  0
  129.7883  131.1777  121.5837 C   0  0  0  0  0  0  0  0  0  0  0  0
  131.1230  131.4033  122.2801 C   0  0  0  0  0  0  0  0  0  0  0  0
  129.5006  131.7775  120.3700 C   0  0  0  0  0  0  0  0  0  0  0  0
  132.0242  132.2151  121.5921 C   0  0  0  0  0  0  0  0  0  0  0  0
  133.3072  132.4171  122.1771 Cl  0  0  0  0  0  0  0  0  0  0  0  0
  131.4996  132.7419  120.3516 C   0  0  0  0  0  0  0  0  0  0  0  0
  130.3214  132.5900  119.7751 N   0  0  0  0  0  0  0  0  0  0  0  0
  132.4773  133.9507  119.7669 C   0  0  0  0  0  0  0  0  0  0  0  0
  1  2  1  0
  2  3  1  0
  2  4  2  0
  3  5  2  0
  5  6  1  0
  5  7  1  0
  4  8  1  0
  7  8  2  0
  7  9  1  0
M  END
$$$$

     RDKit          3D

  9 10  0  0  0  0  0  0  0  0999 V2000
  136.7107  126.9573  117.2849 C   0  0  0  0  0  0  0  0  0  0  0  0
  137.3979  127.2008  118.3603 C   0  0  0  0  0  0  0  0  0  0  0  0
  135.6519  127.6093  117.1908 C   0  0  0  0  0  0  0  0  0  0  0  0
  135.5337  128.5396  117.8781 C   0  0  0  0  0  0  0  0  0  0  0  0
  136.7611  128.2060  118.9241 C   0  0  0  0  0  0  0  0  0  0  0  0
  134.7585  129.7047  118.2424 C   0  0  0  0  0  0  0  0  0  0  0  0
  135.0861  130.5575  119.2650 C   0  0  0  0  0  0  0  0  0  0  0  0
  136.7942  129.2133  119.9560 C   0  0  0  0  0  0  0  0  0  0  0  0
  136.1993  130.1285  120.0374 C   0  0  0  0  0  0  0  0  0  0  0  0
  1  2  1  0
  1  3  2  0
  3  4  1  0
  2  5  2  0
  4  5  1  0
  4  6  2  0
  6  7  1  0
  5  8  1  0
  7  9  2  0
  8  9  1  0
M  END
$$$$

     RDKit          3D

  9  9  0  0  0  0  0  0  0  0999 V2000
  136.4770  127.3101  117.1795 C   0  0  0  0  0  0  0  0  0  0  0  0
  137.5514  127.5875  117.8869 C   0  0  0  0  0  0  0  0  0  0  0  0
  138.1953  128.7827  117.9012 C   0  0  0  0  0  0  0  0  0  0  0  0
  135.8541  128.3912  116.5838 C   0  0  0  0  0  0  0  0  0  0  0  0
  139.2566  129.1689  118.7552 O   0  0  0  0  0  0  0  0  0  0  0  0
  137.2718  129.8403  117.4517 C   0  0  0  0  0  0  0  0  0  0  0  0
  134.5786  128.1272  115.8869 F   0  0  0  0  0  0  0  0  0  0  0  0
  139.2440  130.0520  119.4247 C   0  0  0  0  0  0  0  0  0  0  0  0
  136.2063  129.6850  116.8547 C   0  0  0  0  0  0  0  0  0  0  0  0
  1  2  1  0
  2  3  2  0
  1  4  2  0
  3  5  1  0
  3  6  1  0
  4  7  1  0
  5  8  1  0
  4  9  1  0
  6  9  2  0
M  END
$$$$

     RDKit          3D

  9  9  0  0  0  0  0  0  0  0999 V2000
  128.7928  130.3683  122.2574 Cl  0  0  0  0  0  0  0  0  0  0  0  0
  129.6904  131.2402  121.8012 C   0  0  0  0  0  0  0  0  0  0  0  0
  131.0094  131.4679  122.5182 C   0  0  0  0  0  0  0  0  0  0  0  0
  129.5432  131.8702  120.6464 C   0  0  0  0  0  0  0  0  0  0  0  0
  131.9293  132.3559  121.9380 C   0  0  0  0  0  0  0  0  0  0  0  0
  128.3467  131.8222  119.9125 F   0  0  0  0  0  0  0  0  0  0  0  0
  131.1982  130.8228  123.8504 C   0  0  0  0  0  0  0  0  0  0  0  0
  130.6103  132.5892  120.3232 C   0  0  0  0  0  0  0  0  0  0  0  0
  131.7659  132.8884  120.9308 C   0  0  0  0  0  0  0  0  0  0  0  0
  1  2  1  0
  2  3  2  0
  2  4  1  0
  3  5  1  0
  4  6  1  0
  3  7  1  0
  4  8  2  0
  5  9  2  0
  8  9  1  0
M  END
$$$$

     RDKit          3D

  9  9  0  0  0  0  0  0  0  0999 V2000
  128.3229  130.7658  121.7641 C   0  0  0  0  0  0  0  0  0  0  0  0
  129.4589  130.8440  122.3670 C   0  0  0  0  0  0  0  0  0  0  0  0
  128.3019  131.1033  120.5078 C   0  0  0  0  0  0  0  0  0  0  0  0
  127.0546  130.8733  119.7525 C   0  0  0  0  0  0  0  0  0  0  0  0
  129.5904  131.4899  120.1260 C   0  0  0  0  0  0  0  0  0  0  0  0
  129.6355  131.9321  118.7863 F   0  0  0  0  0  0  0  0  0  0  0  0
  130.4375  131.4116  121.8409 C   0  0  0  0  0  0  0  0  0  0  0  0
  130.6801  131.7015  120.7539 C   0  0  0  0  0  0  0  0  0  0  0  0
  127.3342  131.2145  118.3555 C   0  0  0  0  0  0  0  0  0  0  0  0
  1  2  2  0
  1  3  1  0
  3  4  1  0
  3  5  2  0
  5  6  1  0
  2  7  1  0
  5  8  1  0
  7  8  2  0
  4  9  1  0
M  END
$$$$

     RDKit          3D

  9  9  0  0  0  0  0  0  0  0999 V2000
  129.0694  131.8049  121.7010 C   0  0  0  0  0  0  0  0  0  0  0  0
  130.2348  132.2605  122.1189 C   0  0  0  0  0  0  0  0  0  0  0  0
  128.7661  131.8201  120.5057 O   0  0  0  0  0  0  0  0  0  0  0  0
  131.2310  132.5156  121.2753 C   0  0  0  0  0  0  0  0  0  0  0  0
  130.3793  132.3063  123.5887 C   0  0  0  0  0  0  0  0  0  0  0  0
  132.4501  132.9520  122.0081 C   0  0  0  0  0  0  0  0  0  0  0  0
  132.1390  132.9907  123.4619 C   0  0  0  0  0  0  0  0  0  0  0  0
  128.4148  131.1396  122.6274 O   0  0  0  0  0  0  0  0  0  0  0  0
  131.3385  132.4468  119.8537 C   0  0  0  0  0  0  0  0  0  0  0  0
  1  2  1  0
  1  3  2  0
  2  4  1  0
  2  5  2  0
  4  6  1  0
  5  7  1  0
  6  7  1  0
  1  8  1  0
  4  9  1  0
M  END
$$$$

     RDKit          3D

  9  9  0  0  0  0  0  0  0  0999 V2000
  127.8787  130.9173  121.0916 C   0  0  0  0  0  0  0  0  0  0  0  0
  128.6135  130.4623  121.8738 C   0  0  0  0  0  0  0  0  0  0  0  0
  129.8934  130.1382  121.7654 C   0  0  0  0  0  0  0  0  0  0  0  0
  130.8336  129.7731  122.9348 C   0  0  0  0  0  0  0  0  0  0  0  0
  130.3934  130.1893  120.4949 C   0  0  0  0  0  0  0  0  0  0  0  0
  129.5544  130.5277  119.4923 C   0  0  0  0  0  0  0  0  0  0  0  0
  128.2790  130.8786  119.7422 C   0  0  0  0  0  0  0  0  0  0  0  0
  131.6061  130.7866  123.3011 O   0  0  0  0  0  0  0  0  0  0  0  0
  131.6586  131.0436  124.7821 C   0  0  0  0  0  0  0  0  0  0  0  0
  1  2  2  0
  2  3  1  0
  3  4  1  0
  3  5  2  0
  5  6  1  0
  1  7  1  0
  6  7  2  0
  4  8  1  0
  8  9  1  0
M  END
$$$$

     RDKit          3D

  9  9  0  0  0  0  0  0  0  0999 V2000
  129.0258  130.3649  122.6316 Cl  0  0  0  0  0  0  0  0  0  0  0  0
  130.0370  131.1396  121.9812 C   0  0  0  0  0  0  0  0  0  0  0  0
  131.3104  131.4170  122.6564 C   0  0  0  0  0  0  0  0  0  0  0  0
  131.5953  130.9315  124.0391 C   0  0  0  0  0  0  0  0  0  0  0  0
  129.7620  131.3005  120.8592 C   0  0  0  0  0  0  0  0  0  0  0  0
  128.6826  130.6866  119.9795 O   0  0  0  0  0  0  0  0  0  0  0  0
  130.5630  132.1091  120.3555 C   0  0  0  0  0  0  0  0  0  0  0  0
  131.7304  132.6611  120.9651 C   0  0  0  0  0  0  0  0  0  0  0  0
  132.1351  132.2879  122.1295 C   0  0  0  0  0  0  0  0  0  0  0  0
  1  2  1  0
  2  3  2  0
  3  4  1  0
  2  5  1  0
  5  6  1  0
  5  7  2  0
  7  8  1  0
  3  9  1  0
  8  9  2  0
M  END
$$$$

     RDKit          3D

  9  9  0  0  0  0  0  0  0  0999 V2000
  136.7091  127.4141  117.2116 C   0  0  0  0  0  0  0  0  0  0  0  0
  136.8893  128.6606  117.1520 O   0  0  0  0  0  0  0  0  0  0  0  0
  135.8911  129.4385  117.6407 C   0  0  0  0  0  0  0  0  0  0  0  0
  135.2457  128.8367  118.7126 C   0  0  0  0  0  0  0  0  0  0  0  0
  134.6978  129.4574  119.7050 O   0  0  0  0  0  0  0  0  0  0  0  0
  135.5997  127.2294  118.2157 C   0  0  0  0  0  0  0  0  0  0  0  0
  133.8644  130.2966  119.9080 C   0  0  0  0  0  0  0  0  0  0  0  0
  133.9960  131.4022  119.1838 O   0  0  0  0  0  0  0  0  0  0  0  0
  132.8948  129.6698  120.6326 C   0  0  0  0  0  0  0  0  0  0  0  0
  1  2  1  0
  2  3  1  0
  3  4  1  0
  4  5  1  0
  1  6  1  0
  4  6  1  0
  5  7  1  0
  7  8  2  0
  7  9  1  0
M  END
$$$$

     RDKit          3D

  9  9  0  0  0  0  0  0  0  0999 V2000
  129.1856  130.9948  121.1414 C   0  0  0  0  0  0  0  0  0  0  0  0
  130.3787  130.9362  121.5666 C   0  0  0  0  0  0  0  0  0  0  0  0
  131.3350  130.4509  120.9903 C   0  0  0  0  0  0  0  0  0  0  0  0
  131.0799  129.7544  119.8144 C   0  0  0  0  0  0  0  0  0  0  0  0
  128.0650  131.3831  121.8486 F   0  0  0  0  0  0  0  0  0  0  0  0
  128.9028  130.3347  119.8840 C   0  0  0  0  0  0  0  0  0  0  0  0
  129.9463  129.7639  119.2354 C   0  0  0  0  0  0  0  0  0  0  0  0
  130.4861  131.7107  123.0965 C   0  0  0  0  0  0  0  0  0  0  0  0
  132.6490  129.2700  119.1930 Cl  0  0  0  0  0  0  0  0  0  0  0  0
  1  2  2  0
  2  3  1  0
  3  4  2  0
  1  5  1  0
  1  6  1  0
  4  7  1  0
  6  7  2  0
  2  8  1  0
  4  9  1  0
M  END
$$$$

     RDKit          3D

  9  9  0  0  0  0  0  0  0  0999 V2000
  128.0184  130.8184  121.2531 C   0  0  0  0  0  0  0  0  0  0  0  0
  128.2713  130.8899  120.0651 C   0  0  0  0  0  0  0  0  0  0  0  0
  128.8319  131.1749  122.1478 C   0  0  0  0  0  0  0  0  0  0  0  0
  127.3500  130.3884  118.9166 C   0  0  0  0  0  0  0  0  0  0  0  0
  126.2099  130.1105  119.3484 O   0  0  0  0  0  0  0  0  0  0  0  0
  130.0567  131.6984  121.8681 C   0  0  0  0  0  0  0  0  0  0  0  0
  127.8739  130.4581  117.6806 O   0  0  0  0  0  0  0  0  0  0  0  0
  129.6324  131.3669  120.0219 C   0  0  0  0  0  0  0  0  0  0  0  0
  131.1580  132.2827  122.2264 C   0  0  0  0  0  0  0  0  0  0  0  0
  1  2  2  0
  1  3  1  0
  2  4  1  0
  4  5  2  0
  3  6  2  0
  4  7  1  0
  2  8  1  0
  6  8  1  0
  6  9  1  0
M  END
$$$$

     RDKit          3D

  9  9  0  0  0  0  0  0  0  0999 V2000
  128.7928  130.3683  122.2574 Cl  0  0  0  0  0  0  0  0  0  0  0  0
  129.6904  131.2402  121.8012 C   0  0  0  0  0  0  0  0  0  0  0  0
  131.0094  131.4679  122.5182 C   0  0  0  0  0  0  0  0  0  0  0  0
  129.5432  131.8702  120.6464 C   0  0  0  0  0  0  0  0  0  0  0  0
  128.3710  131.7441  119.8925 O   0  0  0  0  0  0  0  0  0  0  0  0
  131.3032  130.7956  123.9407 Cl  0  0  0  0  0  0  0  0  0  0  0  0
  131.7272  132.4249  121.8785 C   0  0  0  0  0  0  0  0  0  0  0  0
  131.2858  132.8880  120.8717 C   0  0  0  0  0  0  0  0  0  0  0  0
  130.4068  132.7406  120.1437 C   0  0  0  0  0  0  0  0  0  0  0  0
  1  2  1  0
  2  3  2  0
  2  4  1  0
  4  5  1  0
  3  6  1  0
  3  7  1  0
  7  8  2  0
  4  9  2  0
  8  9  1  0
M  END
$$$$

     RDKit          3D

  9  9  0  0  0  0  0  0  0  0999 V2000
  135.7675  129.7549  117.5138 C   0  0  0  0  0  0  0  0  0  0  0  0
  136.1745  128.4532  117.6548 C   0  0  0  0  0  0  0  0  0  0  0  0
  137.4192  128.0173  117.5408 C   0  0  0  0  0  0  0  0  0  0  0  0
  135.1879  127.4652  117.8255 O   0  0  0  0  0  0  0  0  0  0  0  0
  136.8236  130.7240  117.5398 C   0  0  0  0  0  0  0  0  0  0  0  0
  134.4027  130.1792  117.5139 C   0  0  0  0  0  0  0  0  0  0  0  0
  136.4678  132.2299  117.6091 C   0  0  0  0  0  0  0  0  0  0  0  0
  135.1126  132.5377  117.6422 C   0  0  0  0  0  0  0  0  0  0  0  0
  134.0687  131.3404  117.7506 C   0  0  0  0  0  0  0  0  0  0  0  0
  1  2  1  0
  2  3  1  0
  2  4  2  0
  1  5  2  0
  1  6  1  0
  5  7  1  0
  7  8  2  0
  6  9  2  0
  8  9  1  0
M  END
$$$$

     RDKit          3D

  9 10  0  0  0  0  0  0  0  0999 V2000
  129.1856  130.9948  121.1414 C   0  0  0  0  0  0  0  0  0  0  0  0
  130.3787  130.9362  121.5666 C   0  0  0  0  0  0  0  0  0  0  0  0
  131.3350  130.4509  120.9903 C   0  0  0  0  0  0  0  0  0  0  0  0
  132.7398  130.3449  121.4826 O   0  0  0  0  0  0  0  0  0  0  0  0
  131.1525  129.8549  119.8067 C   0  0  0  0  0  0  0  0  0  0  0  0
  128.9874  130.3468  119.8494 C   0  0  0  0  0  0  0  0  0  0  0  0
  130.0427  129.8381  119.2076 C   0  0  0  0  0  0  0  0  0  0  0  0
  132.6795  129.4869  119.3876 O   0  0  0  0  0  0  0  0  0  0  0  0
  133.5995  129.7475  120.2959 C   0  0  0  0  0  0  0  0  0  0  0  0
  1  2  2  0
  2  3  1  0
  3  4  1  0
  3  5  2  0
  1  6  1  0
  5  7  1  0
  6  7  2  0
  5  8  1  0
  4  9  1  0
  8  9  1  0
M  END
$$$$

     RDKit          3D

  9 10  0  0  0  0  0  0  0  0999 V2000
  136.3914  127.2705  117.0970 C   0  0  0  0  0  0  0  0  0  0  0  0
  137.5613  127.5059  117.7206 O   0  0  0  0  0  0  0  0  0  0  0  0
  135.3937  127.9995  117.2665 C   0  0  0  0  0  0  0  0  0  0  0  0
  137.3708  128.6141  118.6170 C   0  0  0  0  0  0  0  0  0  0  0  0
  138.2885  129.1011  119.4323 O   0  0  0  0  0  0  0  0  0  0  0  0
  136.0278  129.0659  118.5330 C   0  0  0  0  0  0  0  0  0  0  0  0
  135.6136  129.9765  119.2990 C   0  0  0  0  0  0  0  0  0  0  0  0
  137.8971  130.2693  120.1182 C   0  0  0  0  0  0  0  0  0  0  0  0
  136.6558  130.6770  120.0860 C   0  0  0  0  0  0  0  0  0  0  0  0
  1  2  1  0
  1  3  2  0
  2  4  1  0
  4  5  1  0
  3  6  1  0
  4  6  2  0
  6  7  1  0
  5  8  1  0
  7  9  2  0
  8  9  1  0
M  END
$$$$

     RDKit          3D

  9  9  0  0  0  0  0  0  0  0999 V2000
  136.8047  126.8673  117.6426 Cl  0  0  0  0  0  0  0  0  0  0  0  0
  136.6792  128.3295  117.8831 C   0  0  0  0  0  0  0  0  0  0  0  0
  136.1951  129.0712  116.8954 C   0  0  0  0  0  0  0  0  0  0  0  0
  137.0683  128.7171  119.2705 C   0  0  0  0  0  0  0  0  0  0  0  0
  136.9686  130.0451  119.6189 C   0  0  0  0  0  0  0  0  0  0  0  0
  135.5224  128.6230  115.6643 Cl  0  0  0  0  0  0  0  0  0  0  0  0
  136.0393  130.4943  117.3011 C   0  0  0  0  0  0  0  0  0  0  0  0
  135.4108  131.3301  116.3524 F   0  0  0  0  0  0  0  0  0  0  0  0
  136.3400  130.9801  118.3824 C   0  0  0  0  0  0  0  0  0  0  0  0
  1  2  1  0
  2  3  2  0
  2  4  1  0
  4  5  2  0
  3  6  1  0
  3  7  1  0
  7  8  1  0
  5  9  1  0
  7  9  2  0
M  END
$$$$

     RDKit          3D

  9  9  0  0  0  0  0  0  0  0999 V2000
  128.7928  130.3683  122.2574 Cl  0  0  0  0  0  0  0  0  0  0  0  0
  129.6904  131.2402  121.8012 C   0  0  0  0  0  0  0  0  0  0  0  0
  131.0094  131.4679  122.5182 C   0  0  0  0  0  0  0  0  0  0  0  0
  129.5432  131.8702  120.6464 C   0  0  0  0  0  0  0  0  0  0  0  0
  130.6111  132.8273  120.3065 C   0  0  0  0  0  0  0  0  0  0  0  0
  131.7167  132.9779  121.1570 C   0  0  0  0  0  0  0  0  0  0  0  0
  132.5867  134.1457  120.7592 C   0  0  0  0  0  0  0  0  0  0  0  0
  132.5300  134.1940  119.5121 F   0  0  0  0  0  0  0  0  0  0  0  0
  131.7077  132.3375  122.1024 C   0  0  0  0  0  0  0  0  0  0  0  0
  1  2  1  0
  2  3  2  0
  2  4  1  0
  4  5  2  0
  5  6  1  0
  6  7  1  0
  7  8  1  0
  3  9  1  0
  6  9  2  0
M  END
$$$$

     RDKit          3D

  9 10  0  0  0  0  0  0  0  0999 V2000
  128.5500  130.6278  121.3982 C   0  0  0  0  0  0  0  0  0  0  0  0
  129.6438  130.7344  122.0921 C   0  0  0  0  0  0  0  0  0  0  0  0
  130.8842  130.7171  121.8464 C   0  0  0  0  0  0  0  0  0  0  0  0
  131.9760  130.8711  122.8813 C   0  0  0  0  0  0  0  0  0  0  0  0
  128.7497  130.4087  120.3528 O   0  0  0  0  0  0  0  0  0  0  0  0
  130.8330  130.4017  120.4323 C   0  0  0  0  0  0  0  0  0  0  0  0
  129.9246  130.2504  119.8048 C   0  0  0  0  0  0  0  0  0  0  0  0
  129.9536  131.2143  123.6557 C   0  0  0  0  0  0  0  0  0  0  0  0
  131.3257  131.1562  124.0270 C   0  0  0  0  0  0  0  0  0  0  0  0
  1  2  2  0
  2  3  1  0
  3  4  1  0
  1  5  1  0
  3  6  2  0
  5  7  1  0
  6  7  1  0
  2  8  1  0
  4  9  1  0
  8  9  2  0
M  END
$$$$

     RDKit          3D

  9  9  0  0  0  0  0  0  0  0999 V2000
  135.7675  129.7549  117.5138 C   0  0  0  0  0  0  0  0  0  0  0  0
  136.1745  128.4532  117.6548 C   0  0  0  0  0  0  0  0  0  0  0  0
  137.4192  128.0173  117.5408 C   0  0  0  0  0  0  0  0  0  0  0  0
  135.1533  127.4477  117.8528 F   0  0  0  0  0  0  0  0  0  0  0  0
  136.7796  130.7437  117.4710 C   0  0  0  0  0  0  0  0  0  0  0  0
  134.3569  130.1403  117.7206 F   0  0  0  0  0  0  0  0  0  0  0  0
  138.4173  129.0506  117.5108 C   0  0  0  0  0  0  0  0  0  0  0  0
  136.2951  132.1727  117.3556 C   0  0  0  0  0  0  0  0  0  0  0  0
  138.0978  130.3561  117.4285 C   0  0  0  0  0  0  0  0  0  0  0  0
  1  2  1  0
  2  3  2  0
  2  4  1  0
  1  5  2  0
  1  6  1  0
  3  7  1  0
  5  8  1  0
  5  9  1  0
  7  9  2  0
M  END
$$$$

     RDKit          3D

  9  9  0  0  0  0  0  0  0  0999 V2000
  129.1238  130.4780  122.7022 Cl  0  0  0  0  0  0  0  0  0  0  0  0
  130.0489  131.1433  121.9935 C   0  0  0  0  0  0  0  0  0  0  0  0
  131.2518  131.6806  122.6389 C   0  0  0  0  0  0  0  0  0  0  0  0
  132.2949  132.3740  121.9200 C   0  0  0  0  0  0  0  0  0  0  0  0
  131.2390  131.3454  123.9707 F   0  0  0  0  0  0  0  0  0  0  0  0
  130.0002  131.3860  120.6057 C   0  0  0  0  0  0  0  0  0  0  0  0
  132.0577  132.5745  120.5385 C   0  0  0  0  0  0  0  0  0  0  0  0
  132.9981  133.4058  119.8792 F   0  0  0  0  0  0  0  0  0  0  0  0
  130.9660  132.1409  119.9387 C   0  0  0  0  0  0  0  0  0  0  0  0
  1  2  1  0
  2  3  2  0
  3  4  1  0
  3  5  1  0
  2  6  1  0
  4  7  2  0
  7  8  1  0
  6  9  2  0
  7  9  1  0
M  END
$$$$

     RDKit          3D

  9  9  0  0  0  0  0  0  0  0999 V2000
  128.0184  130.8184  121.2531 C   0  0  0  0  0  0  0  0  0  0  0  0
  128.2713  130.8899  120.0651 C   0  0  0  0  0  0  0  0  0  0  0  0
  129.3730  130.1365  119.3223 C   0  0  0  0  0  0  0  0  0  0  0  0
  129.0665  130.4796  121.9428 C   0  0  0  0  0  0  0  0  0  0  0  0
  130.3937  129.7333  120.2331 C   0  0  0  0  0  0  0  0  0  0  0  0
  129.0451  130.8762  123.4923 C   0  0  0  0  0  0  0  0  0  0  0  0
  130.2538  130.0591  121.4869 C   0  0  0  0  0  0  0  0  0  0  0  0
  131.6954  129.2678  119.6554 C   0  0  0  0  0  0  0  0  0  0  0  0
  132.7847  129.7012  120.0496 O   0  0  0  0  0  0  0  0  0  0  0  0
  1  2  2  0
  2  3  1  0
  1  4  1  0
  3  5  2  0
  4  6  1  0
  4  7  2  0
  5  7  1  0
  5  8  1  0
  8  9  2  0
M  END
$$$$

     RDKit          3D

  9  9  0  0  0  0  0  0  0  0999 V2000
  136.3914  127.2705  117.0970 C   0  0  0  0  0  0  0  0  0  0  0  0
  137.5613  127.5059  117.7206 O   0  0  0  0  0  0  0  0  0  0  0  0
  135.3937  127.9995  117.2665 C   0  0  0  0  0  0  0  0  0  0  0  0
  135.6745  129.1506  118.1567 C   0  0  0  0  0  0  0  0  0  0  0  0
  136.9825  129.2255  118.7266 C   0  0  0  0  0  0  0  0  0  0  0  0
  137.7189  128.4304  118.6332 C   0  0  0  0  0  0  0  0  0  0  0  0
  134.5727  130.1538  118.3496 C   0  0  0  0  0  0  0  0  0  0  0  0
  133.6537  129.8694  119.3385 O   0  0  0  0  0  0  0  0  0  0  0  0
  134.8788  131.2163  117.8211 O   0  0  0  0  0  0  0  0  0  0  0  0
  1  2  1  0
  1  3  2  0
  3  4  1  0
  4  5  2  0
  2  6  1  0
  5  6  1  0
  4  7  1  0
  7  8  2  0
  7  9  1  0
M  END
$$$$

     RDKit          3D

  9  9  0  0  0  0  0  0  0  0999 V2000
  135.6132  130.9736  118.1529 C   0  0  0  0  0  0  0  0  0  0  0  0
  134.5165  130.4627  118.4787 C   0  0  0  0  0  0  0  0  0  0  0  0
  135.5794  132.1830  117.6578 C   0  0  0  0  0  0  0  0  0  0  0  0
  134.4074  129.1246  119.0886 O   0  0  0  0  0  0  0  0  0  0  0  0
  133.5960  131.4555  118.3824 C   0  0  0  0  0  0  0  0  0  0  0  0
  136.7350  130.0566  118.2204 O   0  0  0  0  0  0  0  0  0  0  0  0
  137.9619  130.6264  118.4818 C   0  0  0  0  0  0  0  0  0  0  0  0
  134.1527  132.6357  117.8794 C   0  0  0  0  0  0  0  0  0  0  0  0
  136.6572  133.1374  117.2073 C   0  0  0  0  0  0  0  0  0  0  0  0
  1  2  1  0
  1  3  2  0
  2  4  1  0
  2  5  2  0
  1  6  1  0
  6  7  1  0
  3  8  1  0
  5  8  1  0
  3  9  1  0
M  END
$$$$

     RDKit          3D

  9  9  0  0  0  0  0  0  0  0999 V2000
  129.1856  130.9948  121.1414 C   0  0  0  0  0  0  0  0  0  0  0  0
  130.3787  130.9362  121.5666 C   0  0  0  0  0  0  0  0  0  0  0  0
  130.7996  131.3884  122.8897 C   0  0  0  0  0  0  0  0  0  0  0  0
  131.3821  130.3017  120.7575 C   0  0  0  0  0  0  0  0  0  0  0  0
  128.7797  130.2674  119.9658 C   0  0  0  0  0  0  0  0  0  0  0  0
  129.8693  129.6505  119.3461 C   0  0  0  0  0  0  0  0  0  0  0  0
  129.7982  131.7046  123.8726 C   0  0  0  0  0  0  0  0  0  0  0  0
  131.0760  129.6747  119.6625 C   0  0  0  0  0  0  0  0  0  0  0  0
  132.2159  131.4149  123.1398 C   0  0  0  0  0  0  0  0  0  0  0  0
  1  2  2  0
  2  3  1  0
  2  4  1  0
  1  5  1  0
  5  6  2  0
  3  7  1  0
  4  8  2  0
  6  8  1  0
  3  9  2  0
M  END
$$$$

     RDKit          3D

  9  9  0  0  0  0  0  0  0  0999 V2000
  129.1856  130.9948  121.1414 C   0  0  0  0  0  0  0  0  0  0  0  0
  130.3787  130.9362  121.5666 C   0  0  0  0  0  0  0  0  0  0  0  0
  128.8090  130.7249  119.9065 C   0  0  0  0  0  0  0  0  0  0  0  0
  128.3936  131.4483  122.2320 F   0  0  0  0  0  0  0  0  0  0  0  0
  131.3818  130.3813  120.7276 C   0  0  0  0  0  0  0  0  0  0  0  0
  130.4852  131.2015  122.8796 F   0  0  0  0  0  0  0  0  0  0  0  0
  131.0027  130.0848  119.4587 C   0  0  0  0  0  0  0  0  0  0  0  0
  131.9568  129.5436  118.5513 F   0  0  0  0  0  0  0  0  0  0  0  0
  129.8765  130.3011  119.1073 C   0  0  0  0  0  0  0  0  0  0  0  0
  1  2  2  0
  1  3  1  0
  1  4  1  0
  2  5  1  0
  2  6  1  0
  5  7  2  0
  7  8  1  0
  3  9  2  0
  7  9  1  0
M  END
$$$$

     RDKit          3D

  9  9  0  0  0  0  0  0  0  0999 V2000
  135.6132  130.9736  118.1529 C   0  0  0  0  0  0  0  0  0  0  0  0
  134.5165  130.4627  118.4787 C   0  0  0  0  0  0  0  0  0  0  0  0
  136.9451  130.3871  118.0993 C   0  0  0  0  0  0  0  0  0  0  0  0
  136.7940  129.1318  118.5938 C   0  0  0  0  0  0  0  0  0  0  0  0
  133.3035  131.2287  118.4679 F   0  0  0  0  0  0  0  0  0  0  0  0
  138.0581  128.3143  118.7580 C   0  0  0  0  0  0  0  0  0  0  0  0
  134.7654  129.1594  118.9427 C   0  0  0  0  0  0  0  0  0  0  0  0
  135.5179  132.5795  117.5334 Cl  0  0  0  0  0  0  0  0  0  0  0  0
  135.8397  128.5504  119.0035 C   0  0  0  0  0  0  0  0  0  0  0  0
  1  2  1  0
  1  3  2  0
  3  4  1  0
  2  5  1  0
  4  6  1  0
  2  7  2  0
  1  8  1  0
  4  9  2  0
  7  9  1  0
M  END
$$$$

     RDKit          3D

  9  9  0  0  0  0  0  0  0  0999 V2000
  129.1856  130.9948  121.1414 C   0  0  0  0  0  0  0  0  0  0  0  0
  130.3787  130.9362  121.5666 C   0  0  0  0  0  0  0  0  0  0  0  0
  128.8090  130.7249  119.9065 C   0  0  0  0  0  0  0  0  0  0  0  0
  128.3936  131.4483  122.2320 F   0  0  0  0  0  0  0  0  0  0  0  0
  131.3818  130.3813  120.7276 C   0  0  0  0  0  0  0  0  0  0  0  0
  130.4852  131.2015  122.8796 F   0  0  0  0  0  0  0  0  0  0  0  0
  127.4547  130.8995  119.5598 O   0  0  0  0  0  0  0  0  0  0  0  0
  131.0387  130.0735  119.4670 C   0  0  0  0  0  0  0  0  0  0  0  0
  129.7070  130.2422  119.0241 C   0  0  0  0  0  0  0  0  0  0  0  0
  1  2  2  0
  1  3  1  0
  1  4  1  0
  2  5  1  0
  2  6  1  0
  3  7  1  0
  5  8  2  0
  3  9  2  0
  8  9  1  0
M  END
$$$$

     RDKit          3D

  9  9  0  0  0  0  0  0  0  0999 V2000
  128.0184  130.8184  121.2531 C   0  0  0  0  0  0  0  0  0  0  0  0
  128.2713  130.8899  120.0651 C   0  0  0  0  0  0  0  0  0  0  0  0
  128.9010  131.0675  122.0631 C   0  0  0  0  0  0  0  0  0  0  0  0
  127.2430  130.4680  119.0200 C   0  0  0  0  0  0  0  0  0  0  0  0
  130.0028  131.3430  121.9007 C   0  0  0  0  0  0  0  0  0  0  0  0
  131.0750  131.5734  122.9664 C   0  0  0  0  0  0  0  0  0  0  0  0
  129.7040  131.2321  119.8964 C   0  0  0  0  0  0  0  0  0  0  0  0
  126.4505  131.6220  118.6132 O   0  0  0  0  0  0  0  0  0  0  0  0
  130.4283  131.4439  120.7687 C   0  0  0  0  0  0  0  0  0  0  0  0
  1  2  1  0
  1  3  2  0
  2  4  1  0
  3  5  1  0
  5  6  1  0
  2  7  2  0
  4  8  1  0
  5  9  2  0
  7  9  1  0
M  END
$$$$

     RDKit          3D

  9  9  0  0  0  0  0  0  0  0999 V2000
  129.0694  131.8049  121.7010 C   0  0  0  0  0  0  0  0  0  0  0  0
  130.2348  132.2605  122.1189 C   0  0  0  0  0  0  0  0  0  0  0  0
  131.2836  132.4054  121.5366 C   0  0  0  0  0  0  0  0  0  0  0  0
  132.4986  133.0858  122.0933 F   0  0  0  0  0  0  0  0  0  0  0  0
  130.4155  132.6457  123.4503 F   0  0  0  0  0  0  0  0  0  0  0  0
  128.9804  131.4282  120.3775 C   0  0  0  0  0  0  0  0  0  0  0  0
  131.3286  132.1080  120.2469 C   0  0  0  0  0  0  0  0  0  0  0  0
  132.4229  132.3426  119.4496 F   0  0  0  0  0  0  0  0  0  0  0  0
  129.9559  131.5111  119.6376 C   0  0  0  0  0  0  0  0  0  0  0  0
  1  2  1  0
  2  3  2  0
  3  4  1  0
  2  5  1  0
  1  6  2  0
  3  7  1  0
  7  8  1  0
  6  9  1  0
  7  9  2  0
M  END
$$$$

     RDKit          3D

  9  9  0  0  0  0  0  0  0  0999 V2000
  135.6132  130.9736  118.1529 C   0  0  0  0  0  0  0  0  0  0  0  0
  134.5165  130.4627  118.4787 C   0  0  0  0  0  0  0  0  0  0  0  0
  136.9451  130.3871  118.0993 C   0  0  0  0  0  0  0  0  0  0  0  0
  136.7940  129.1318  118.5938 C   0  0  0  0  0  0  0  0  0  0  0  0
  135.3967  132.5533  117.6029 C   0  0  0  0  0  0  0  0  0  0  0  0
  133.3003  131.0950  118.5746 O   0  0  0  0  0  0  0  0  0  0  0  0
  135.5980  128.5443  118.9706 C   0  0  0  0  0  0  0  0  0  0  0  0
  135.5977  127.1623  119.4611 F   0  0  0  0  0  0  0  0  0  0  0  0
  134.5177  129.2138  118.9234 C   0  0  0  0  0  0  0  0  0  0  0  0
  1  2  1  0
  1  3  2  0
  3  4  1  0
  1  5  1  0
  2  6  2  0
  4  7  2  0
  7  8  1  0
  2  9  1  0
  7  9  1  0
M  END
$$$$

     RDKit          3D

  9  9  0  0  0  0  0  0  0  0999 V2000
  135.6132  130.9736  118.1529 C   0  0  0  0  0  0  0  0  0  0  0  0
  134.5165  130.4627  118.4787 C   0  0  0  0  0  0  0  0  0  0  0  0
  136.9451  130.3871  118.0993 C   0  0  0  0  0  0  0  0  0  0  0  0
  138.2006  131.0894  117.8253 C   0  0  0  0  0  0  0  0  0  0  0  0
  135.8429  132.4142  117.6072 C   0  0  0  0  0  0  0  0  0  0  0  0
  134.5205  129.3162  119.1098 C   0  0  0  0  0  0  0  0  0  0  0  0
  137.9870  132.4486  117.4997 C   0  0  0  0  0  0  0  0  0  0  0  0
  134.7406  128.0600  118.4375 F   0  0  0  0  0  0  0  0  0  0  0  0
  136.9475  133.1229  117.4241 C   0  0  0  0  0  0  0  0  0  0  0  0
  1  2  1  0
  1  3  2  0
  3  4  1  0
  1  5  1  0
  2  6  2  3
  4  7  2  0
  6  8  1  0
  5  9  2  0
  7  9  1  0
M  END
$$$$

     RDKit          3D

  9  9  0  0  0  0  0  0  0  0999 V2000
  129.1974  130.3962  121.2928 C   0  0  0  0  0  0  0  0  0  0  0  0
  130.3557  130.6167  121.7742 C   0  0  0  0  0  0  0  0  0  0  0  0
  131.4318  130.0109  121.4298 C   0  0  0  0  0  0  0  0  0  0  0  0
  130.4566  131.3710  122.8817 O   0  0  0  0  0  0  0  0  0  0  0  0
  127.9998  131.0659  121.7919 C   0  0  0  0  0  0  0  0  0  0  0  0
  129.3068  132.0052  123.4780 C   0  0  0  0  0  0  0  0  0  0  0  0
  128.4347  131.8715  122.9726 C   0  0  0  0  0  0  0  0  0  0  0  0
  132.6021  129.9516  122.1056 O   0  0  0  0  0  0  0  0  0  0  0  0
  131.5350  129.4499  120.1519 O   0  0  0  0  0  0  0  0  0  0  0  0
  1  2  2  0
  2  3  1  0
  2  4  1  0
  1  5  1  0
  4  6  1  0
  5  7  2  0
  6  7  1  0
  3  8  2  0
  3  9  1  0
M  END
$$$$

     RDKit          3D

  9  9  0  0  0  0  0  0  0  0999 V2000
  129.0694  131.8049  121.7010 C   0  0  0  0  0  0  0  0  0  0  0  0
  130.2348  132.2605  122.1189 C   0  0  0  0  0  0  0  0  0  0  0  0
  128.7661  131.8201  120.5057 O   0  0  0  0  0  0  0  0  0  0  0  0
  131.2310  132.5156  121.2753 C   0  0  0  0  0  0  0  0  0  0  0  0
  130.3793  132.3063  123.5887 C   0  0  0  0  0  0  0  0  0  0  0  0
  132.4501  132.9520  122.0081 C   0  0  0  0  0  0  0  0  0  0  0  0
  132.1390  132.9907  123.4619 C   0  0  0  0  0  0  0  0  0  0  0  0
  128.7607  130.9772  122.6593 O   0  0  0  0  0  0  0  0  0  0  0  0
  131.3399  132.4623  119.8457 C   0  0  0  0  0  0  0  0  0  0  0  0
  1  2  1  0
  1  3  2  0
  2  4  1  0
  2  5  2  0
  4  6  1  0
  5  7  1  0
  6  7  1  0
  1  8  1  0
  4  9  2  0
M  END
$$$$

     RDKit          3D

 10 11  0  0  0  0  0  0  0  0999 V2000
  129.1856  130.9948  121.1414 C   0  0  0  0  0  0  0  0  0  0  0  0
  130.3787  130.9362  121.5666 C   0  0  0  0  0  0  0  0  0  0  0  0
  131.3350  130.4509  120.9903 C   0  0  0  0  0  0  0  0  0  0  0  0
  132.7398  130.3449  121.4826 C   0  0  0  0  0  0  0  0  0  0  0  0
  130.7728  131.4811  122.9752 C   0  0  0  0  0  0  0  0  0  0  0  0
  132.0370  131.4076  123.6136 C   0  0  0  0  0  0  0  0  0  0  0  0
  128.8110  130.5082  119.9272 C   0  0  0  0  0  0  0  0  0  0  0  0
  129.9159  129.9028  119.2992 C   0  0  0  0  0  0  0  0  0  0  0  0
  131.2050  129.8248  119.8653 C   0  0  0  0  0  0  0  0  0  0  0  0
  132.8033  130.7503  123.0338 C   0  0  0  0  0  0  0  0  0  0  0  0
  1  2  2  0
  2  3  1  0
  3  4  1  0
  2  5  1  0
  5  6  2  0
  1  7  1  0
  7  8  2  0
  3  9  2  0
  8  9  1  0
  4 10  2  0
  6 10  1  0
M  END
$$$$

     RDKit          3D

 10 11  0  0  0  0  0  0  0  0999 V2000
  130.4168  131.1237  123.4034 C   0  0  0  0  0  0  0  0  0  0  0  0
  129.6464  131.2309  122.3556 C   0  0  0  0  0  0  0  0  0  0  0  0
  130.3429  130.1528  124.4955 C   0  0  0  0  0  0  0  0  0  0  0  0
  129.8064  131.8005  121.1613 C   0  0  0  0  0  0  0  0  0  0  0  0
  131.4478  132.1478  123.2716 C   0  0  0  0  0  0  0  0  0  0  0  0
  130.9689  132.7153  121.2680 C   0  0  0  0  0  0  0  0  0  0  0  0
  131.1421  133.6344  120.0076 C   0  0  0  0  0  0  0  0  0  0  0  0
  132.3194  134.4755  120.6461 C   0  0  0  0  0  0  0  0  0  0  0  0
  132.4410  133.9973  122.0551 C   0  0  0  0  0  0  0  0  0  0  0  0
  131.6254  132.8849  122.4017 C   0  0  0  0  0  0  0  0  0  0  0  0
  1  2  1  0
  1  3  2  0
  2  4  2  0
  1  5  1  0
  4  6  1  0
  6  7  1  0
  7  8  1  0
  8  9  1  0
  5 10  1  0
  6 10  2  0
  9 10  1  0
M  END
$$$$

     RDKit          3D

 10 10  0  0  0  0  0  0  0  0999 V2000
  128.7928  130.3683  122.2574 Cl  0  0  0  0  0  0  0  0  0  0  0  0
  129.6904  131.2402  121.8012 C   0  0  0  0  0  0  0  0  0  0  0  0
  131.0094  131.4679  122.5182 C   0  0  0  0  0  0  0  0  0  0  0  0
  129.5432  131.8702  120.6464 C   0  0  0  0  0  0  0  0  0  0  0  0
  128.3710  131.7441  119.8925 F   0  0  0  0  0  0  0  0  0  0  0  0
  130.5457  132.6310  120.3071 C   0  0  0  0  0  0  0  0  0  0  0  0
  131.2610  130.8920  123.9022 C   0  0  0  0  0  0  0  0  0  0  0  0
  131.6845  132.7657  121.1740 C   0  0  0  0  0  0  0  0  0  0  0  0
  132.6081  133.8764  120.5844 C   0  0  0  0  0  0  0  0  0  0  0  0
  131.7399  132.2006  122.1962 C   0  0  0  0  0  0  0  0  0  0  0  0
  1  2  1  0
  2  3  2  0
  2  4  1  0
  4  5  1  0
  4  6  2  0
  3  7  1  0
  6  8  1  0
  8  9  1  0
  3 10  1  0
  8 10  2  0
M  END
$$$$

     RDKit          3D

 10 10  0  0  0  0  0  0  0  0999 V2000
  136.7452  126.8353  117.7916 Cl  0  0  0  0  0  0  0  0  0  0  0  0
  136.9070  128.2812  117.9086 C   0  0  0  0  0  0  0  0  0  0  0  0
  136.3792  129.0040  116.9303 C   0  0  0  0  0  0  0  0  0  0  0  0
  137.5858  128.7053  119.1518 C   0  0  0  0  0  0  0  0  0  0  0  0
  137.6696  130.0741  119.4379 C   0  0  0  0  0  0  0  0  0  0  0  0
  135.5016  128.5378  115.8192 Cl  0  0  0  0  0  0  0  0  0  0  0  0
  138.4356  130.5010  120.5448 C   0  0  0  0  0  0  0  0  0  0  0  0
  136.4973  130.5494  117.0522 C   0  0  0  0  0  0  0  0  0  0  0  0
  135.8971  131.3338  116.1563 F   0  0  0  0  0  0  0  0  0  0  0  0
  137.0800  131.0704  118.5803 C   0  0  0  0  0  0  0  0  0  0  0  0
  1  2  1  0
  2  3  2  0
  2  4  1  0
  4  5  2  0
  3  6  1  0
  5  7  1  0
  3  8  1  0
  8  9  1  0
  5 10  1  0
  8 10  2  0
M  END
$$$$

     RDKit          3D

 10 10  0  0  0  0  0  0  0  0999 V2000
  129.1238  130.4780  122.7022 Cl  0  0  0  0  0  0  0  0  0  0  0  0
  130.0489  131.1433  121.9935 C   0  0  0  0  0  0  0  0  0  0  0  0
  131.2518  131.6806  122.6389 C   0  0  0  0  0  0  0  0  0  0  0  0
  132.2949  132.3740  121.9200 C   0  0  0  0  0  0  0  0  0  0  0  0
  131.2390  131.3454  123.9707 C   0  0  0  0  0  0  0  0  0  0  0  0
  129.9083  131.2684  120.5731 C   0  0  0  0  0  0  0  0  0  0  0  0
  132.9922  133.3251  122.5273 F   0  0  0  0  0  0  0  0  0  0  0  0
  131.9250  132.4353  120.6524 C   0  0  0  0  0  0  0  0  0  0  0  0
  132.9754  133.2613  119.9635 F   0  0  0  0  0  0  0  0  0  0  0  0
  130.9380  132.0080  119.8976 C   0  0  0  0  0  0  0  0  0  0  0  0
  1  2  1  0
  2  3  2  0
  3  4  1  0
  3  5  1  0
  2  6  1  0
  4  7  1  0
  4  8  2  0
  8  9  1  0
  6 10  2  0
  8 10  1  0
M  END
$$$$

     RDKit          3D

 10 10  0  0  0  0  0  0  0  0999 V2000
  129.5804  130.4836  122.4334 C   0  0  0  0  0  0  0  0  0  0  0  0
  130.7593  130.8591  122.9295 C   0  0  0  0  0  0  0  0  0  0  0  0
  129.0571  131.1873  121.5564 C   0  0  0  0  0  0  0  0  0  0  0  0
  131.3863  130.1413  124.2900 Cl  0  0  0  0  0  0  0  0  0  0  0  0
  131.3935  131.9843  122.3653 C   0  0  0  0  0  0  0  0  0  0  0  0
  127.7470  130.7164  121.0397 C   0  0  0  0  0  0  0  0  0  0  0  0
  130.7560  132.6471  121.3690 C   0  0  0  0  0  0  0  0  0  0  0  0
  131.3853  133.8954  120.8461 C   0  0  0  0  0  0  0  0  0  0  0  0
  127.8004  130.0246  119.8902 O   0  0  0  0  0  0  0  0  0  0  0  0
  129.5700  132.1375  121.0446 C   0  0  0  0  0  0  0  0  0  0  0  0
  1  2  2  0
  1  3  1  0
  2  4  1  0
  2  5  1  0
  3  6  1  0
  5  7  2  0
  7  8  1  0
  6  9  2  0
  3 10  2  0
  7 10  1  0
M  END
$$$$

     RDKit          3D

 10 11  0  0  0  0  0  0  0  0999 V2000
  130.4168  131.1237  123.4034 C   0  0  0  0  0  0  0  0  0  0  0  0
  129.6464  131.2309  122.3556 C   0  0  0  0  0  0  0  0  0  0  0  0
  130.3429  130.1528  124.4955 C   0  0  0  0  0  0  0  0  0  0  0  0
  129.8064  131.8005  121.1613 C   0  0  0  0  0  0  0  0  0  0  0  0
  131.4478  132.1478  123.2716 C   0  0  0  0  0  0  0  0  0  0  0  0
  130.9689  132.7153  121.2680 C   0  0  0  0  0  0  0  0  0  0  0  0
  131.1421  133.6344  120.0076 C   0  0  0  0  0  0  0  0  0  0  0  0
  132.3194  134.4755  120.6461 C   0  0  0  0  0  0  0  0  0  0  0  0
  132.4410  133.9973  122.0551 C   0  0  0  0  0  0  0  0  0  0  0  0
  131.7964  133.1264  122.3755 C   0  0  0  0  0  0  0  0  0  0  0  0
  1  2  1  0
  1  3  2  0
  2  4  2  0
  1  5  1  0
  4  6  1  0
  6  7  1  0
  7  8  1  0
  8  9  1  0
  5 10  1  0
  6 10  1  0
  9 10  1  0
M  END
$$$$

     RDKit          3D

 10 10  0  0  0  0  0  0  0  0999 V2000
  136.8323  129.0222  117.5389 C   0  0  0  0  0  0  0  0  0  0  0  0
  136.0735  129.6299  118.3469 C   0  0  0  0  0  0  0  0  0  0  0  0
  134.7356  129.2551  118.6145 C   0  0  0  0  0  0  0  0  0  0  0  0
  133.9162  129.9019  119.5474 O   0  0  0  0  0  0  0  0  0  0  0  0
  134.8033  128.1092  117.9566 O   0  0  0  0  0  0  0  0  0  0  0  0
  136.3517  130.9729  119.0304 C   0  0  0  0  0  0  0  0  0  0  0  0
  138.3194  129.3824  117.5277 C   0  0  0  0  0  0  0  0  0  0  0  0
  136.4078  127.9061  116.6767 O   0  0  0  0  0  0  0  0  0  0  0  0
  138.6089  130.6315  118.2015 C   0  0  0  0  0  0  0  0  0  0  0  0
  137.7323  131.3828  118.9513 C   0  0  0  0  0  0  0  0  0  0  0  0
  1  2  2  0
  2  3  1  0
  3  4  1  0
  3  5  2  0
  2  6  1  0
  1  7  1  0
  1  8  1  0
  7  9  2  0
  6 10  2  0
  9 10  1  0
M  END
$$$$

     RDKit          3D

 10 11  0  0  0  0  0  0  0  0999 V2000
  136.3914  127.2705  117.0970 C   0  0  0  0  0  0  0  0  0  0  0  0
  137.5613  127.5059  117.7206 O   0  0  0  0  0  0  0  0  0  0  0  0
  135.3937  127.9995  117.2665 C   0  0  0  0  0  0  0  0  0  0  0  0
  137.3708  128.6141  118.6170 C   0  0  0  0  0  0  0  0  0  0  0  0
  138.2885  129.1011  119.4323 O   0  0  0  0  0  0  0  0  0  0  0  0
  136.0278  129.0659  118.5330 C   0  0  0  0  0  0  0  0  0  0  0  0
  135.6136  129.9765  119.2990 C   0  0  0  0  0  0  0  0  0  0  0  0
  134.2552  130.2776  119.3336 O   0  0  0  0  0  0  0  0  0  0  0  0
  136.5590  130.5305  120.1038 O   0  0  0  0  0  0  0  0  0  0  0  0
  137.8630  130.2733  120.0680 C   0  0  0  0  0  0  0  0  0  0  0  0
  1  2  1  0
  1  3  2  0
  2  4  1  0
  4  5  1  0
  3  6  1  0
  4  6  2  0
  6  7  1  0
  7  8  2  0
  7  9  1  0
  5 10  1  0
  9 10  1  0
M  END
$$$$

     RDKit          3D

 10 10  0  0  0  0  0  0  0  0999 V2000
  135.6132  130.9736  118.1529 C   0  0  0  0  0  0  0  0  0  0  0  0
  134.5165  130.4627  118.4787 C   0  0  0  0  0  0  0  0  0  0  0  0
  136.9451  130.3871  118.0993 C   0  0  0  0  0  0  0  0  0  0  0  0
  136.7940  129.1318  118.5938 C   0  0  0  0  0  0  0  0  0  0  0  0
  133.3035  131.2287  118.4679 F   0  0  0  0  0  0  0  0  0  0  0  0
  138.0581  128.3143  118.7580 C   0  0  0  0  0  0  0  0  0  0  0  0
  139.1839  129.0220  119.0734 O   0  0  0  0  0  0  0  0  0  0  0  0
  137.8803  127.0913  118.6152 O   0  0  0  0  0  0  0  0  0  0  0  0
  135.6813  128.3725  119.0787 C   0  0  0  0  0  0  0  0  0  0  0  0
  134.4216  129.1900  118.9875 C   0  0  0  0  0  0  0  0  0  0  0  0
  1  2  1  0
  1  3  2  0
  3  4  1  0
  2  5  1  0
  4  6  1  0
  6  7  2  0
  6  8  1  0
  4  9  2  0
  2 10  2  0
  9 10  1  0
M  END
$$$$

     RDKit          3D

 10 11  0  0  0  0  0  0  0  0999 V2000
  136.3914  127.2705  117.0970 C   0  0  0  0  0  0  0  0  0  0  0  0
  137.5613  127.5059  117.7206 O   0  0  0  0  0  0  0  0  0  0  0  0
  135.3937  127.9995  117.2665 C   0  0  0  0  0  0  0  0  0  0  0  0
  137.3708  128.6141  118.6170 C   0  0  0  0  0  0  0  0  0  0  0  0
  138.2885  129.1011  119.4323 O   0  0  0  0  0  0  0  0  0  0  0  0
  136.0278  129.0659  118.5330 C   0  0  0  0  0  0  0  0  0  0  0  0
  135.6136  129.9765  119.2990 C   0  0  0  0  0  0  0  0  0  0  0  0
  137.8971  130.2693  120.1182 C   0  0  0  0  0  0  0  0  0  0  0  0
  134.2764  130.2815  119.4352 O   0  0  0  0  0  0  0  0  0  0  0  0
  136.5872  130.6368  120.0933 C   0  0  0  0  0  0  0  0  0  0  0  0
  1  2  1  0
  1  3  2  0
  2  4  1  0
  4  5  1  0
  3  6  1  0
  4  6  2  0
  6  7  1  0
  5  8  1  0
  7  9  2  0
  7 10  1  0
  8 10  1  0
M  END
$$$$

     RDKit          3D

 10  9  0  0  0  0  0  0  0  0999 V2000
  136.1981  129.5437  117.5866 C   0  0  0  0  0  0  0  0  0  0  0  0
  136.3854  128.1682  117.5214 C   0  0  0  0  0  0  0  0  0  0  0  0
  135.5114  130.3207  118.5755 C   0  0  0  0  0  0  0  0  0  0  0  0
  134.8764  129.5470  119.5506 C   0  0  0  0  0  0  0  0  0  0  0  0
  135.2876  131.7107  118.5428 C   0  0  0  0  0  0  0  0  0  0  0  0
  135.5682  132.4722  117.4119 C   0  0  0  0  0  0  0  0  0  0  0  0
  133.9738  130.0575  120.5390 C   0  0  0  0  0  0  0  0  0  0  0  0
  134.5375  132.2122  119.7240 F   0  0  0  0  0  0  0  0  0  0  0  0
  135.3804  128.2376  119.2642 F   0  0  0  0  0  0  0  0  0  0  0  0
  135.9280  127.5097  118.5877 O   0  0  0  0  0  0  0  0  0  0  0  0
  1  2  2  3
  1  3  1  0
  3  4  2  3
  3  5  1  0
  5  6  2  0
  4  7  1  0
  5  8  1  0
  4  9  1  0
  2 10  1  0
M  END
$$$$

     RDKit          3D

 10 11  0  0  0  0  0  0  0  0999 V2000
  129.1856  130.9948  121.1414 C   0  0  0  0  0  0  0  0  0  0  0  0
  130.3787  130.9362  121.5666 C   0  0  0  0  0  0  0  0  0  0  0  0
  130.7996  131.3884  122.8897 C   0  0  0  0  0  0  0  0  0  0  0  0
  131.3821  130.3017  120.7575 C   0  0  0  0  0  0  0  0  0  0  0  0
  128.7797  130.2674  119.9658 C   0  0  0  0  0  0  0  0  0  0  0  0
  129.8693  129.6505  119.3461 C   0  0  0  0  0  0  0  0  0  0  0  0
  132.7125  130.2450  121.4496 C   0  0  0  0  0  0  0  0  0  0  0  0
  132.1843  131.2131  123.3526 C   0  0  0  0  0  0  0  0  0  0  0  0
  131.0975  129.7180  119.6182 C   0  0  0  0  0  0  0  0  0  0  0  0
  133.0558  130.6176  122.6615 N   0  0  0  0  0  0  0  0  0  0  0  0
  1  2  2  0
  2  3  1  0
  2  4  1  0
  1  5  1  0
  5  6  2  0
  4  7  1  0
  3  8  2  0
  4  9  2  0
  6  9  1  0
  7 10  2  0
  8 10  1  0
M  END
$$$$

     RDKit          3D

 10 10  0  0  0  0  0  0  0  0999 V2000
  130.4168  131.1237  123.4034 C   0  0  0  0  0  0  0  0  0  0  0  0
  129.6464  131.2309  122.3556 C   0  0  0  0  0  0  0  0  0  0  0  0
  129.8703  131.9985  121.3290 C   0  0  0  0  0  0  0  0  0  0  0  0
  128.4398  130.4880  122.2225 C   0  0  0  0  0  0  0  0  0  0  0  0
  131.5081  132.0246  123.6078 C   0  0  0  0  0  0  0  0  0  0  0  0
  131.9747  132.2490  124.8813 F   0  0  0  0  0  0  0  0  0  0  0  0
  130.3945  131.5621  120.0776 C   0  0  0  0  0  0  0  0  0  0  0  0
  131.8769  132.9494  122.6320 C   0  0  0  0  0  0  0  0  0  0  0  0
  129.7369  130.6003  119.3896 O   0  0  0  0  0  0  0  0  0  0  0  0
  131.1026  133.2003  121.4585 C   0  0  0  0  0  0  0  0  0  0  0  0
  1  2  2  0
  2  3  1  0
  2  4  1  0
  1  5  1  0
  5  6  1  0
  3  7  1  0
  5  8  2  0
  7  9  1  0
  3 10  2  0
  8 10  1  0
M  END
$$$$

     RDKit          3D

 10 10  0  0  0  0  0  0  0  0999 V2000
  136.7452  126.8353  117.7916 Cl  0  0  0  0  0  0  0  0  0  0  0  0
  136.9070  128.2812  117.9086 C   0  0  0  0  0  0  0  0  0  0  0  0
  136.3792  129.0040  116.9303 C   0  0  0  0  0  0  0  0  0  0  0  0
  137.5858  128.7053  119.1518 C   0  0  0  0  0  0  0  0  0  0  0  0
  137.6696  130.0741  119.4379 C   0  0  0  0  0  0  0  0  0  0  0  0
  135.5016  128.5378  115.8192 Cl  0  0  0  0  0  0  0  0  0  0  0  0
  138.4356  130.5010  120.5448 C   0  0  0  0  0  0  0  0  0  0  0  0
  136.8302  130.9758  118.7136 C   0  0  0  0  0  0  0  0  0  0  0  0
  136.6737  132.1990  119.1594 F   0  0  0  0  0  0  0  0  0  0  0  0
  136.2724  130.5532  117.2688 C   0  0  0  0  0  0  0  0  0  0  0  0
  1  2  1  0
  2  3  2  0
  2  4  1  0
  4  5  2  0
  3  6  1  0
  5  7  1  0
  5  8  1  0
  8  9  1  0
  3 10  1  0
  8 10  2  0
M  END
$$$$

     RDKit          3D

 10 10  0  0  0  0  0  0  0  0999 V2000
  128.0184  130.8184  121.2531 C   0  0  0  0  0  0  0  0  0  0  0  0
  128.2713  130.8899  120.0651 C   0  0  0  0  0  0  0  0  0  0  0  0
  128.8319  131.1749  122.1478 C   0  0  0  0  0  0  0  0  0  0  0  0
  127.3500  130.3884  118.9166 C   0  0  0  0  0  0  0  0  0  0  0  0
  126.2099  130.1105  119.3484 O   0  0  0  0  0  0  0  0  0  0  0  0
  130.0567  131.6984  121.8681 C   0  0  0  0  0  0  0  0  0  0  0  0
  129.6561  131.4073  119.8799 C   0  0  0  0  0  0  0  0  0  0  0  0
  129.9168  131.3073  118.5656 F   0  0  0  0  0  0  0  0  0  0  0  0
  130.4712  131.7792  120.7701 C   0  0  0  0  0  0  0  0  0  0  0  0
  127.9751  130.6106  117.7765 O   0  0  0  0  0  0  0  0  0  0  0  0
  1  2  2  0
  1  3  1  0
  2  4  1  0
  4  5  2  0
  3  6  2  0
  2  7  1  0
  7  8  1  0
  6  9  1  0
  7  9  2  0
  4 10  1  0
M  END
$$$$

     RDKit          3D

 10 10  0  0  0  0  0  0  0  0999 V2000
  136.1746  127.9468  117.0311 C   0  0  0  0  0  0  0  0  0  0  0  0
  135.7857  129.0854  117.4188 O   0  0  0  0  0  0  0  0  0  0  0  0
  137.3673  127.5409  117.7658 C   0  0  0  0  0  0  0  0  0  0  0  0
  135.8967  129.5314  118.6300 C   0  0  0  0  0  0  0  0  0  0  0  0
  134.9643  130.1612  119.3341 C   0  0  0  0  0  0  0  0  0  0  0  0
  133.6282  130.3025  118.6907 C   0  0  0  0  0  0  0  0  0  0  0  0
  137.1982  129.3099  119.3344 C   0  0  0  0  0  0  0  0  0  0  0  0
  132.7071  131.2087  119.3271 O   0  0  0  0  0  0  0  0  0  0  0  0
  137.4694  128.1845  118.9312 O   0  0  0  0  0  0  0  0  0  0  0  0
  132.2155  130.8697  120.5960 C   0  0  0  0  0  0  0  0  0  0  0  0
  1  2  1  0
  1  3  1  0
  2  4  1  0
  4  5  2  3
  5  6  1  0
  4  7  1  0
  6  8  1  0
  3  9  1  0
  7  9  1  0
  8 10  1  0
M  END
$$$$

     RDKit          3D

 10 11  0  0  0  0  0  0  0  0999 V2000
  136.4770  127.3101  117.1795 C   0  0  0  0  0  0  0  0  0  0  0  0
  137.5514  127.5875  117.8869 C   0  0  0  0  0  0  0  0  0  0  0  0
  138.1953  128.7827  117.9012 C   0  0  0  0  0  0  0  0  0  0  0  0
  135.8541  128.3912  116.5838 C   0  0  0  0  0  0  0  0  0  0  0  0
  139.2566  129.1689  118.7552 O   0  0  0  0  0  0  0  0  0  0  0  0
  137.2718  129.8403  117.4517 C   0  0  0  0  0  0  0  0  0  0  0  0
  139.2451  130.0317  119.4213 C   0  0  0  0  0  0  0  0  0  0  0  0
  138.1279  130.5150  119.9717 C   0  0  0  0  0  0  0  0  0  0  0  0
  137.0570  130.7124  118.9301 C   0  0  0  0  0  0  0  0  0  0  0  0
  136.1903  129.8713  116.7459 C   0  0  0  0  0  0  0  0  0  0  0  0
  1  2  1  0
  2  3  2  0
  1  4  2  0
  3  5  1  0
  3  6  1  0
  5  7  1  0
  7  8  1  0
  6  9  1  0
  8  9  1  0
  4 10  1  0
  6 10  2  0
M  END
$$$$

     RDKit          3D

 10 10  0  0  0  0  0  0  0  0999 V2000
  129.0694  131.8049  121.7010 C   0  0  0  0  0  0  0  0  0  0  0  0
  130.2348  132.2605  122.1189 C   0  0  0  0  0  0  0  0  0  0  0  0
  131.2836  132.4054  121.5366 C   0  0  0  0  0  0  0  0  0  0  0  0
  132.4986  133.0858  122.0933 F   0  0  0  0  0  0  0  0  0  0  0  0
  130.4155  132.6457  123.4503 F   0  0  0  0  0  0  0  0  0  0  0  0
  128.9804  131.4282  120.3775 C   0  0  0  0  0  0  0  0  0  0  0  0
  127.7721  130.8154  119.8102 C   0  0  0  0  0  0  0  0  0  0  0  0
  130.2947  131.5508  119.8288 C   0  0  0  0  0  0  0  0  0  0  0  0
  127.6312  131.3271  118.4430 O   0  0  0  0  0  0  0  0  0  0  0  0
  131.4730  132.0681  120.2229 C   0  0  0  0  0  0  0  0  0  0  0  0
  1  2  1  0
  2  3  2  0
  3  4  1  0
  2  5  1  0
  1  6  2  0
  6  7  1  0
  6  8  1  0
  7  9  1  0
  3 10  1  0
  8 10  2  0
M  END
$$$$

     RDKit          3D

 10 10  0  0  0  0  0  0  0  0999 V2000
  135.6132  130.9736  118.1529 C   0  0  0  0  0  0  0  0  0  0  0  0
  134.5165  130.4627  118.4787 C   0  0  0  0  0  0  0  0  0  0  0  0
  136.9451  130.3871  118.0993 C   0  0  0  0  0  0  0  0  0  0  0  0
  136.7940  129.1318  118.5938 C   0  0  0  0  0  0  0  0  0  0  0  0
  138.0694  128.3439  118.6631 C   0  0  0  0  0  0  0  0  0  0  0  0
  135.7413  128.7530  119.0493 C   0  0  0  0  0  0  0  0  0  0  0  0
  134.7046  129.2480  118.9436 C   0  0  0  0  0  0  0  0  0  0  0  0
  139.2175  129.0406  118.9319 C   0  0  0  0  0  0  0  0  0  0  0  0
  140.4135  128.6657  118.6926 O   0  0  0  0  0  0  0  0  0  0  0  0
  138.9126  130.2186  119.6262 O   0  0  0  0  0  0  0  0  0  0  0  0
  1  2  1  0
  1  3  2  0
  3  4  1  0
  4  5  1  0
  4  6  2  0
  2  7  2  0
  6  7  1  0
  5  8  1  0
  8  9  2  0
  8 10  1  0
M  END
$$$$

     RDKit          3D

 10 11  0  0  0  0  0  0  0  0999 V2000
  130.4168  131.1237  123.4034 C   0  0  0  0  0  0  0  0  0  0  0  0
  129.6464  131.2309  122.3556 C   0  0  0  0  0  0  0  0  0  0  0  0
  130.3429  130.1528  124.4955 C   0  0  0  0  0  0  0  0  0  0  0  0
  129.8064  131.8005  121.1613 C   0  0  0  0  0  0  0  0  0  0  0  0
  131.4478  132.1478  123.2716 C   0  0  0  0  0  0  0  0  0  0  0  0
  130.9689  132.7153  121.2680 C   0  0  0  0  0  0  0  0  0  0  0  0
  131.1421  133.6344  120.0076 C   0  0  0  0  0  0  0  0  0  0  0  0
  132.3194  134.4755  120.6461 C   0  0  0  0  0  0  0  0  0  0  0  0
  132.4410  133.9973  122.0551 C   0  0  0  0  0  0  0  0  0  0  0  0
  131.7964  133.1264  122.3755 C   0  0  0  0  0  0  0  0  0  0  0  0
  1  2  1  0
  1  3  2  0
  2  4  2  0
  1  5  1  0
  4  6  1  0
  6  7  1  0
  7  8  1  0
  8  9  1  0
  5 10  2  0
  6 10  1  0
  9 10  1  0
M  END
$$$$

     RDKit          3D

 10 10  0  0  0  0  0  0  0  0999 V2000
  128.5500  130.6278  121.3982 C   0  0  0  0  0  0  0  0  0  0  0  0
  129.6438  130.7344  122.0921 O   0  0  0  0  0  0  0  0  0  0  0  0
  130.6989  131.3800  121.8997 C   0  0  0  0  0  0  0  0  0  0  0  0
  130.8214  131.9554  120.8638 C   0  0  0  0  0  0  0  0  0  0  0  0
  131.2152  131.0303  123.0898 C   0  0  0  0  0  0  0  0  0  0  0  0
  132.1089  132.8393  120.6137 C   0  0  0  0  0  0  0  0  0  0  0  0
  132.1781  133.6727  119.4763 C   0  0  0  0  0  0  0  0  0  0  0  0
  132.8241  132.5782  121.7948 C   0  0  0  0  0  0  0  0  0  0  0  0
  130.9523  130.5030  124.2603 C   0  0  0  0  0  0  0  0  0  0  0  0
  132.5149  131.8662  122.7949 C   0  0  0  0  0  0  0  0  0  0  0  0
  1  2  1  0
  2  3  1  0
  3  4  2  0
  3  5  1  0
  4  6  1  0
  6  7  1  0
  6  8  2  0
  5  9  1  0
  5 10  2  0
  8 10  1  0
M  END
$$$$

     RDKit          3D

 10 11  0  0  0  0  0  0  0  0999 V2000
  136.3914  127.2705  117.0970 C   0  0  0  0  0  0  0  0  0  0  0  0
  137.5613  127.5059  117.7206 O   0  0  0  0  0  0  0  0  0  0  0  0
  135.3937  127.9995  117.2665 C   0  0  0  0  0  0  0  0  0  0  0  0
  137.3708  128.6141  118.6170 C   0  0  0  0  0  0  0  0  0  0  0  0
  138.2885  129.1011  119.4323 O   0  0  0  0  0  0  0  0  0  0  0  0
  136.0278  129.0659  118.5330 C   0  0  0  0  0  0  0  0  0  0  0  0
  135.6136  129.9765  119.2990 C   0  0  0  0  0  0  0  0  0  0  0  0
  137.8971  130.2693  120.1182 C   0  0  0  0  0  0  0  0  0  0  0  0
  134.2764  130.2815  119.4352 O   0  0  0  0  0  0  0  0  0  0  0  0
  136.5582  130.6237  120.0769 C   0  0  0  0  0  0  0  0  0  0  0  0
  1  2  1  0
  1  3  2  0
  2  4  1  0
  4  5  1  0
  3  6  1  0
  4  6  2  0
  6  7  1  0
  5  8  1  0
  7  9  2  0
  7 10  1  0
  8 10  2  0
M  END
$$$$

     RDKit          3D

 10 11  0  0  0  0  0  0  0  0999 V2000
  129.1856  130.9948  121.1414 C   0  0  0  0  0  0  0  0  0  0  0  0
  130.3787  130.9362  121.5666 C   0  0  0  0  0  0  0  0  0  0  0  0
  130.7996  131.3884  122.8897 C   0  0  0  0  0  0  0  0  0  0  0  0
  131.3821  130.3017  120.7575 C   0  0  0  0  0  0  0  0  0  0  0  0
  128.7797  130.2674  119.9658 C   0  0  0  0  0  0  0  0  0  0  0  0
  132.7201  130.1003  121.1292 C   0  0  0  0  0  0  0  0  0  0  0  0
  132.2006  131.1037  123.3156 C   0  0  0  0  0  0  0  0  0  0  0  0
  132.9039  130.3147  122.2699 C   0  0  0  0  0  0  0  0  0  0  0  0
  130.6234  129.9616  119.4754 C   0  0  0  0  0  0  0  0  0  0  0  0
  130.0588  131.7652  123.7153 O   0  0  0  0  0  0  0  0  0  0  0  0
  1  2  2  0
  2  3  1  0
  2  4  1  0
  1  5  1  0
  4  6  2  0
  3  7  1  0
  6  8  1  0
  7  8  2  0
  4  9  1  0
  5  9  2  0
  3 10  2  0
M  END
$$$$

     RDKit          3D

 10 10  0  0  0  0  0  0  0  0999 V2000
  135.6132  130.9736  118.1529 C   0  0  0  0  0  0  0  0  0  0  0  0
  134.5165  130.4627  118.4787 C   0  0  0  0  0  0  0  0  0  0  0  0
  136.9451  130.3871  118.0993 C   0  0  0  0  0  0  0  0  0  0  0  0
  138.2006  131.0894  117.8253 C   0  0  0  0  0  0  0  0  0  0  0  0
  135.8429  132.4142  117.6072 C   0  0  0  0  0  0  0  0  0  0  0  0
  134.5205  129.3162  119.1098 C   0  0  0  0  0  0  0  0  0  0  0  0
  137.9870  132.4486  117.4997 C   0  0  0  0  0  0  0  0  0  0  0  0
  136.8315  133.1647  117.3698 C   0  0  0  0  0  0  0  0  0  0  0  0
  133.3601  128.7464  119.6797 O   0  0  0  0  0  0  0  0  0  0  0  0
  132.6262  129.6798  120.3989 C   0  0  0  0  0  0  0  0  0  0  0  0
  1  2  1  0
  1  3  2  0
  3  4  1  0
  1  5  1  0
  2  6  2  3
  4  7  2  0
  5  8  2  0
  7  8  1  0
  6  9  1  0
  9 10  1  0
M  END
$$$$

     RDKit          3D

 10 11  0  0  0  0  0  0  0  0999 V2000
  136.8502  126.9686  117.2057 C   0  0  0  0  0  0  0  0  0  0  0  0
  137.4292  127.2274  118.3429 C   0  0  0  0  0  0  0  0  0  0  0  0
  137.5032  128.5818  118.9563 C   0  0  0  0  0  0  0  0  0  0  0  0
  136.1565  128.0432  117.1012 C   0  0  0  0  0  0  0  0  0  0  0  0
  138.1919  129.0211  119.9581 O   0  0  0  0  0  0  0  0  0  0  0  0
  136.5177  129.2993  118.2992 C   0  0  0  0  0  0  0  0  0  0  0  0
  135.8417  129.2324  117.4484 C   0  0  0  0  0  0  0  0  0  0  0  0
  138.5597  130.1089  119.8911 C   0  0  0  0  0  0  0  0  0  0  0  0
  137.6269  131.0395  119.5646 C   0  0  0  0  0  0  0  0  0  0  0  0
  136.6904  130.8167  118.9326 O   0  0  0  0  0  0  0  0  0  0  0  0
  1  2  2  0
  2  3  1  0
  1  4  1  0
  3  5  1  0
  3  6  2  0
  4  7  2  0
  6  7  1  0
  5  8  1  0
  8  9  1  0
  6 10  1  0
  9 10  1  0
M  END
$$$$

     RDKit          3D

 10 10  0  0  0  0  0  0  0  0999 V2000
  135.7675  129.7549  117.5138 C   0  0  0  0  0  0  0  0  0  0  0  0
  136.1745  128.4532  117.6548 C   0  0  0  0  0  0  0  0  0  0  0  0
  137.4192  128.0173  117.5408 C   0  0  0  0  0  0  0  0  0  0  0  0
  135.1879  127.4652  117.8255 O   0  0  0  0  0  0  0  0  0  0  0  0
  136.8236  130.7240  117.5398 C   0  0  0  0  0  0  0  0  0  0  0  0
  134.4027  130.1792  117.5139 C   0  0  0  0  0  0  0  0  0  0  0  0
  136.4678  132.2299  117.6091 C   0  0  0  0  0  0  0  0  0  0  0  0
  137.4242  133.2366  117.3454 F   0  0  0  0  0  0  0  0  0  0  0  0
  134.0077  131.1092  118.2189 C   0  0  0  0  0  0  0  0  0  0  0  0
  135.0923  132.5107  118.0450 C   0  0  0  0  0  0  0  0  0  0  0  0
  1  2  1  0
  2  3  1  0
  2  4  2  0
  1  5  2  0
  1  6  1  0
  5  7  1  0
  7  8  1  0
  6  9  2  0
  7 10  2  0
  9 10  1  0
M  END
$$$$

     RDKit          3D

 10 11  0  0  0  0  0  0  0  0999 V2000
  136.7561  127.5022  117.4092 C   0  0  0  0  0  0  0  0  0  0  0  0
  135.9448  128.4728  117.6758 C   0  0  0  0  0  0  0  0  0  0  0  0
  134.7290  128.5429  118.3636 O   0  0  0  0  0  0  0  0  0  0  0  0
  134.5189  129.7307  119.0411 C   0  0  0  0  0  0  0  0  0  0  0  0
  133.4123  129.8175  119.7121 C   0  0  0  0  0  0  0  0  0  0  0  0
  135.6228  130.2855  118.6528 C   0  0  0  0  0  0  0  0  0  0  0  0
  136.1227  129.8487  117.8387 C   0  0  0  0  0  0  0  0  0  0  0  0
  135.7124  131.6755  119.4216 C   0  0  0  0  0  0  0  0  0  0  0  0
  134.7957  131.8377  120.4988 C   0  0  0  0  0  0  0  0  0  0  0  0
  133.8292  131.1414  120.4845 C   0  0  0  0  0  0  0  0  0  0  0  0
  1  2  1  0
  2  3  1  0
  3  4  1  0
  4  5  2  0
  4  6  1  0
  2  7  1  0
  6  7  1  0
  6  8  2  0
  8  9  1  0
  5 10  1  0
  9 10  2  0
M  END
$$$$

     RDKit          3D

 10 10  0  0  0  0  0  0  0  0999 V2000
  135.7675  129.7549  117.5138 C   0  0  0  0  0  0  0  0  0  0  0  0
  136.1745  128.4532  117.6548 C   0  0  0  0  0  0  0  0  0  0  0  0
  137.4192  128.0173  117.5408 C   0  0  0  0  0  0  0  0  0  0  0  0
  135.1533  127.4477  117.8528 F   0  0  0  0  0  0  0  0  0  0  0  0
  136.7796  130.7437  117.4710 C   0  0  0  0  0  0  0  0  0  0  0  0
  134.3569  130.1403  117.7206 F   0  0  0  0  0  0  0  0  0  0  0  0
  138.4173  129.0506  117.5108 C   0  0  0  0  0  0  0  0  0  0  0  0
  136.2951  132.1727  117.3556 C   0  0  0  0  0  0  0  0  0  0  0  0
  139.8578  128.7040  117.7463 C   0  0  0  0  0  0  0  0  0  0  0  0
  138.0692  130.3475  117.4906 C   0  0  0  0  0  0  0  0  0  0  0  0
  1  2  1  0
  2  3  2  0
  2  4  1  0
  1  5  2  0
  1  6  1  0
  3  7  1  0
  5  8  1  0
  7  9  1  0
  5 10  1  0
  7 10  2  0
M  END
$$$$

     RDKit          3D

 10 10  0  0  0  0  0  0  0  0999 V2000
  129.0258  130.3649  122.6316 Cl  0  0  0  0  0  0  0  0  0  0  0  0
  129.2955  130.8965  121.3810 C   0  0  0  0  0  0  0  0  0  0  0  0
  128.5048  130.6204  120.3703 C   0  0  0  0  0  0  0  0  0  0  0  0
  130.5426  131.7499  121.2840 C   0  0  0  0  0  0  0  0  0  0  0  0
  130.7880  132.3093  120.0121 C   0  0  0  0  0  0  0  0  0  0  0  0
  131.9507  133.1784  119.8668 C   0  0  0  0  0  0  0  0  0  0  0  0
  132.4019  133.8025  121.0140 C   0  0  0  0  0  0  0  0  0  0  0  0
  129.0141  131.1681  118.9913 C   0  0  0  0  0  0  0  0  0  0  0  0
  132.1434  135.2098  120.9738 F   0  0  0  0  0  0  0  0  0  0  0  0
  129.8838  131.6511  119.0397 C   0  0  0  0  0  0  0  0  0  0  0  0
  1  2  1  0
  2  3  2  0
  2  4  1  0
  4  5  2  0
  5  6  1  0
  6  7  1  0
  3  8  1  0
  7  9  1  0
  5 10  1  0
  8 10  2  0
M  END
$$$$

     RDKit          3D

 10 10  0  0  0  0  0  0  0  0999 V2000
  135.7675  129.7549  117.5138 C   0  0  0  0  0  0  0  0  0  0  0  0
  136.1745  128.4532  117.6548 C   0  0  0  0  0  0  0  0  0  0  0  0
  137.4192  128.0173  117.5408 C   0  0  0  0  0  0  0  0  0  0  0  0
  134.4200  130.2336  117.8480 C   0  0  0  0  0  0  0  0  0  0  0  0
  134.2888  131.6265  118.0788 C   0  0  0  0  0  0  0  0  0  0  0  0
  134.9318  127.8299  117.8532 F   0  0  0  0  0  0  0  0  0  0  0  0
  136.6985  130.6293  117.2709 C   0  0  0  0  0  0  0  0  0  0  0  0
  138.1362  130.3443  117.5150 C   0  0  0  0  0  0  0  0  0  0  0  0
  138.3586  129.1704  117.5039 C   0  0  0  0  0  0  0  0  0  0  0  0
  133.4919  129.2969  118.1495 O   0  0  0  0  0  0  0  0  0  0  0  0
  1  2  1  0
  2  3  2  0
  1  4  1  0
  4  5  1  0
  2  6  1  0
  1  7  2  0
  7  8  1  0
  3  9  1  0
  8  9  2  0
  4 10  2  0
M  END
$$$$

     RDKit          3D

 10 10  0  0  0  0  0  0  0  0999 V2000
  129.5804  130.4836  122.4334 C   0  0  0  0  0  0  0  0  0  0  0  0
  130.7593  130.8591  122.9295 C   0  0  0  0  0  0  0  0  0  0  0  0
  129.0571  131.1873  121.5564 C   0  0  0  0  0  0  0  0  0  0  0  0
  131.3863  130.1413  124.2900 Cl  0  0  0  0  0  0  0  0  0  0  0  0
  131.3935  131.9843  122.3653 C   0  0  0  0  0  0  0  0  0  0  0  0
  127.7470  130.7164  121.0397 C   0  0  0  0  0  0  0  0  0  0  0  0
  130.7560  132.6471  121.3690 C   0  0  0  0  0  0  0  0  0  0  0  0
  127.7933  129.8982  120.0249 C   0  0  0  0  0  0  0  0  0  0  0  0
  129.7027  132.1708  120.9314 C   0  0  0  0  0  0  0  0  0  0  0  0
  128.8498  129.2144  119.5607 C   0  0  0  0  0  0  0  0  0  0  0  0
  1  2  2  0
  1  3  1  0
  2  4  1  0
  2  5  1  0
  3  6  1  0
  5  7  2  0
  6  8  2  3
  3  9  2  0
  7  9  1  0
  8 10  1  0
M  END
$$$$

     RDKit          3D

 10 10  0  0  0  0  0  0  0  0999 V2000
  129.1856  130.9948  121.1414 C   0  0  0  0  0  0  0  0  0  0  0  0
  130.3787  130.9362  121.5666 C   0  0  0  0  0  0  0  0  0  0  0  0
  130.7996  131.3884  122.8897 C   0  0  0  0  0  0  0  0  0  0  0  0
  129.7344  131.7255  123.7484 C   0  0  0  0  0  0  0  0  0  0  0  0
  131.4596  130.3615  120.7286 C   0  0  0  0  0  0  0  0  0  0  0  0
  132.8061  130.2311  121.1962 C   0  0  0  0  0  0  0  0  0  0  0  0
  132.2375  131.4245  123.2957 C   0  0  0  0  0  0  0  0  0  0  0  0
  128.1605  131.4172  122.1122 F   0  0  0  0  0  0  0  0  0  0  0  0
  132.5539  131.8576  124.5140 C   0  0  0  0  0  0  0  0  0  0  0  0
  132.8075  130.7060  122.3244 C   0  0  0  0  0  0  0  0  0  0  0  0
  1  2  2  3
  2  3  1  0
  3  4  2  0
  2  5  1  0
  5  6  2  0
  3  7  1  0
  1  8  1  0
  7  9  1  0
  6 10  1  0
  7 10  2  0
M  END
$$$$

     RDKit          3D

 10 10  0  0  0  0  0  0  0  0999 V2000
  129.1238  130.4780  122.7022 Cl  0  0  0  0  0  0  0  0  0  0  0  0
  130.0489  131.1433  121.9935 C   0  0  0  0  0  0  0  0  0  0  0  0
  131.2518  131.6806  122.6389 C   0  0  0  0  0  0  0  0  0  0  0  0
  132.2949  132.3740  121.9200 C   0  0  0  0  0  0  0  0  0  0  0  0
  131.2390  131.3454  123.9707 C   0  0  0  0  0  0  0  0  0  0  0  0
  129.9083  131.2684  120.5731 C   0  0  0  0  0  0  0  0  0  0  0  0
  132.9922  133.3251  122.5273 F   0  0  0  0  0  0  0  0  0  0  0  0
  131.9250  132.4353  120.6524 C   0  0  0  0  0  0  0  0  0  0  0  0
  128.8044  130.7766  119.9133 O   0  0  0  0  0  0  0  0  0  0  0  0
  130.9763  131.9524  119.8393 C   0  0  0  0  0  0  0  0  0  0  0  0
  1  2  1  0
  2  3  2  0
  3  4  1  0
  3  5  1  0
  2  6  1  0
  4  7  1  0
  4  8  2  0
  6  9  1  0
  6 10  2  0
  8 10  1  0
M  END
$$$$

     RDKit          3D

 10 11  0  0  0  0  0  0  0  0999 V2000
  128.5500  130.6278  121.3982 C   0  0  0  0  0  0  0  0  0  0  0  0
  129.6438  130.7344  122.0921 C   0  0  0  0  0  0  0  0  0  0  0  0
  130.8842  130.7171  121.8464 C   0  0  0  0  0  0  0  0  0  0  0  0
  131.9760  130.8711  122.8813 C   0  0  0  0  0  0  0  0  0  0  0  0
  128.7497  130.4087  120.3528 O   0  0  0  0  0  0  0  0  0  0  0  0
  130.8330  130.4017  120.4323 C   0  0  0  0  0  0  0  0  0  0  0  0
  129.8090  130.2124  119.6813 C   0  0  0  0  0  0  0  0  0  0  0  0
  129.9455  131.2113  123.6642 C   0  0  0  0  0  0  0  0  0  0  0  0
  130.9895  131.0092  123.9904 C   0  0  0  0  0  0  0  0  0  0  0  0
  131.6778  131.1070  125.3586 C   0  0  0  0  0  0  0  0  0  0  0  0
  1  2  2  0
  2  3  1  0
  3  4  1  0
  1  5  1  0
  3  6  2  0
  5  7  1  0
  6  7  1  0
  2  8  1  0
  4  9  2  0
  8  9  1  0
  9 10  1  0
M  END
$$$$

     RDKit          3D

 10 10  0  0  0  0  0  0  0  0999 V2000
  136.8495  126.8717  118.1119 Cl  0  0  0  0  0  0  0  0  0  0  0  0
  137.1665  127.8787  117.4213 C   0  0  0  0  0  0  0  0  0  0  0  0
  138.0950  128.8913  117.9651 C   0  0  0  0  0  0  0  0  0  0  0  0
  137.4700  130.0664  118.6021 C   0  0  0  0  0  0  0  0  0  0  0  0
  136.3214  128.1259  116.3226 C   0  0  0  0  0  0  0  0  0  0  0  0
  137.1275  131.1755  117.8333 C   0  0  0  0  0  0  0  0  0  0  0  0
  136.3242  130.9609  116.6917 C   0  0  0  0  0  0  0  0  0  0  0  0
  137.3595  132.5638  118.1665 C   0  0  0  0  0  0  0  0  0  0  0  0
  137.0321  133.6700  117.2732 F   0  0  0  0  0  0  0  0  0  0  0  0
  135.6263  129.4229  116.1057 C   0  0  0  0  0  0  0  0  0  0  0  0
  1  2  1  0
  2  3  1  0
  3  4  2  0
  2  5  2  0
  4  6  1  0
  6  7  1  0
  6  8  2  3
  8  9  1  0
  5 10  1  0
  7 10  2  0
M  END
$$$$

     RDKit          3D

 10 10  0  0  0  0  0  0  0  0999 V2000
  128.0184  130.8184  121.2531 C   0  0  0  0  0  0  0  0  0  0  0  0
  128.2713  130.8899  120.0651 C   0  0  0  0  0  0  0  0  0  0  0  0
  128.8319  131.1749  122.1478 C   0  0  0  0  0  0  0  0  0  0  0  0
  127.3500  130.3884  118.9166 C   0  0  0  0  0  0  0  0  0  0  0  0
  126.2099  130.1105  119.3484 O   0  0  0  0  0  0  0  0  0  0  0  0
  130.0567  131.6984  121.8681 C   0  0  0  0  0  0  0  0  0  0  0  0
  129.6561  131.4073  119.8799 C   0  0  0  0  0  0  0  0  0  0  0  0
  129.9168  131.3073  118.5656 F   0  0  0  0  0  0  0  0  0  0  0  0
  127.9871  130.7661  117.9197 F   0  0  0  0  0  0  0  0  0  0  0  0
  130.4436  131.8418  120.6770 C   0  0  0  0  0  0  0  0  0  0  0  0
  1  2  2  0
  1  3  1  0
  2  4  1  0
  4  5  2  0
  3  6  2  0
  2  7  1  0
  7  8  1  0
  4  9  1  0
  6 10  1  0
  7 10  2  0
M  END
$$$$

     RDKit          3D

 10 10  0  0  0  0  0  0  0  0999 V2000
  129.0258  130.3649  122.6316 Cl  0  0  0  0  0  0  0  0  0  0  0  0
  130.0370  131.1396  121.9812 C   0  0  0  0  0  0  0  0  0  0  0  0
  131.3104  131.4170  122.6564 C   0  0  0  0  0  0  0  0  0  0  0  0
  131.5953  130.9315  124.0391 C   0  0  0  0  0  0  0  0  0  0  0  0
  129.7620  131.3005  120.8592 C   0  0  0  0  0  0  0  0  0  0  0  0
  128.6826  130.6866  119.9795 O   0  0  0  0  0  0  0  0  0  0  0  0
  130.5630  132.1091  120.3555 C   0  0  0  0  0  0  0  0  0  0  0  0
  131.7304  132.6611  120.9651 C   0  0  0  0  0  0  0  0  0  0  0  0
  132.3995  133.8479  120.2203 C   0  0  0  0  0  0  0  0  0  0  0  0
  131.9439  132.3211  121.8797 C   0  0  0  0  0  0  0  0  0  0  0  0
  1  2  1  0
  2  3  2  0
  3  4  1  0
  2  5  1  0
  5  6  1  0
  5  7  2  0
  7  8  1  0
  8  9  1  0
  3 10  1  0
  8 10  2  0
M  END
$$$$

     RDKit          3D

 10 10  0  0  0  0  0  0  0  0999 V2000
  128.3229  130.7658  121.7641 C   0  0  0  0  0  0  0  0  0  0  0  0
  129.4589  130.8440  122.3670 C   0  0  0  0  0  0  0  0  0  0  0  0
  128.3019  131.1033  120.5078 C   0  0  0  0  0  0  0  0  0  0  0  0
  129.6208  130.6152  123.9773 Cl  0  0  0  0  0  0  0  0  0  0  0  0
  130.5029  131.2366  121.5137 C   0  0  0  0  0  0  0  0  0  0  0  0
  130.2290  131.4674  120.2603 C   0  0  0  0  0  0  0  0  0  0  0  0
  131.4791  131.9840  119.5059 F   0  0  0  0  0  0  0  0  0  0  0  0
  126.8213  130.9710  119.9733 O   0  0  0  0  0  0  0  0  0  0  0  0
  129.2722  131.3843  119.7639 C   0  0  0  0  0  0  0  0  0  0  0  0
  126.8289  131.1790  118.5718 C   0  0  0  0  0  0  0  0  0  0  0  0
  1  2  2  0
  1  3  1  0
  2  4  1  0
  2  5  1  0
  5  6  2  0
  6  7  1  0
  3  8  1  0
  3  9  2  0
  6  9  1  0
  8 10  1  0
M  END
$$$$

     RDKit          3D

 10 10  0  0  0  0  0  0  0  0999 V2000
  136.8495  126.8717  118.1119 Cl  0  0  0  0  0  0  0  0  0  0  0  0
  137.1665  127.8787  117.4213 C   0  0  0  0  0  0  0  0  0  0  0  0
  138.0950  128.8913  117.9651 C   0  0  0  0  0  0  0  0  0  0  0  0
  137.4700  130.0664  118.6021 C   0  0  0  0  0  0  0  0  0  0  0  0
  136.3214  128.1259  116.3226 C   0  0  0  0  0  0  0  0  0  0  0  0
  137.4687  130.1547  120.0381 C   0  0  0  0  0  0  0  0  0  0  0  0
  136.8587  131.0468  117.8249 C   0  0  0  0  0  0  0  0  0  0  0  0
  136.1723  130.6612  116.6230 C   0  0  0  0  0  0  0  0  0  0  0  0
  135.9521  129.3766  116.0907 C   0  0  0  0  0  0  0  0  0  0  0  0
  136.8357  132.1210  118.1620 O   0  0  0  0  0  0  0  0  0  0  0  0
  1  2  1  0
  2  3  1  0
  3  4  2  0
  2  5  2  0
  4  6  1  0
  4  7  1  0
  7  8  1  0
  5  9  1  0
  8  9  2  0
  7 10  2  0
M  END
$$$$

     RDKit          3D

 10  9  0  0  0  0  0  0  0  0999 V2000
  136.8495  126.8717  118.1119 Cl  0  0  0  0  0  0  0  0  0  0  0  0
  137.1665  127.8787  117.4213 C   0  0  0  0  0  0  0  0  0  0  0  0
  138.0950  128.8913  117.9651 C   0  0  0  0  0  0  0  0  0  0  0  0
  137.4700  130.0664  118.6021 C   0  0  0  0  0  0  0  0  0  0  0  0
  136.3214  128.1259  116.3226 C   0  0  0  0  0  0  0  0  0  0  0  0
  137.4687  130.1547  120.0381 C   0  0  0  0  0  0  0  0  0  0  0  0
  136.8587  131.0468  117.8249 C   0  0  0  0  0  0  0  0  0  0  0  0
  136.5596  132.3214  118.3168 C   0  0  0  0  0  0  0  0  0  0  0  0
  135.9307  133.2989  117.4424 F   0  0  0  0  0  0  0  0  0  0  0  0
  135.4045  128.8479  116.0247 F   0  0  0  0  0  0  0  0  0  0  0  0
  1  2  1  0
  2  3  1  0
  3  4  2  3
  2  5  2  3
  4  6  1  0
  4  7  1  0
  7  8  2  3
  8  9  1  0
  5 10  1  0
M  END
$$$$

     RDKit          3D

 10 10  0  0  0  0  0  0  0  0999 V2000
  129.1974  130.3962  121.2928 C   0  0  0  0  0  0  0  0  0  0  0  0
  130.3557  130.6167  121.7742 C   0  0  0  0  0  0  0  0  0  0  0  0
  130.6608  131.4247  122.9364 C   0  0  0  0  0  0  0  0  0  0  0  0
  131.3265  129.9135  121.0275 C   0  0  0  0  0  0  0  0  0  0  0  0
  132.7559  129.9730  121.3993 C   0  0  0  0  0  0  0  0  0  0  0  0
  131.0071  129.3304  120.1340 O   0  0  0  0  0  0  0  0  0  0  0  0
  132.0250  131.6253  123.5816 C   0  0  0  0  0  0  0  0  0  0  0  0
  131.9274  131.8215  124.9458 C   0  0  0  0  0  0  0  0  0  0  0  0
  130.5579  131.3229  125.4052 C   0  0  0  0  0  0  0  0  0  0  0  0
  130.0811  130.7046  124.3953 C   0  0  0  0  0  0  0  0  0  0  0  0
  1  2  2  0
  2  3  1  0
  2  4  1  0
  4  5  1  0
  4  6  2  0
  3  7  1  0
  7  8  1  0
  8  9  1  0
  3 10  1  0
  9 10  1  0
M  END
$$$$

     RDKit          3D

 10 10  0  0  0  0  0  0  0  0999 V2000
  128.7928  130.3683  122.2574 Cl  0  0  0  0  0  0  0  0  0  0  0  0
  129.6904  131.2402  121.8012 C   0  0  0  0  0  0  0  0  0  0  0  0
  131.0094  131.4679  122.5182 C   0  0  0  0  0  0  0  0  0  0  0  0
  129.5432  131.8702  120.6464 C   0  0  0  0  0  0  0  0  0  0  0  0
  130.6111  132.8273  120.3065 C   0  0  0  0  0  0  0  0  0  0  0  0
  131.7167  132.9779  121.1570 C   0  0  0  0  0  0  0  0  0  0  0  0
  132.5867  134.1457  120.7592 C   0  0  0  0  0  0  0  0  0  0  0  0
  132.5300  134.1940  119.5121 F   0  0  0  0  0  0  0  0  0  0  0  0
  131.0668  130.5733  123.8319 C   0  0  0  0  0  0  0  0  0  0  0  0
  131.8204  132.3767  122.1601 C   0  0  0  0  0  0  0  0  0  0  0  0
  1  2  1  0
  2  3  2  0
  2  4  1  0
  4  5  2  0
  5  6  1  0
  6  7  1  0
  7  8  1  0
  3  9  1  0
  3 10  1  0
  6 10  2  0
M  END
$$$$

     RDKit          3D

 10 10  0  0  0  0  0  0  0  0999 V2000
  135.9026  128.0393  116.7725 C   0  0  0  0  0  0  0  0  0  0  0  0
  135.6116  129.1925  117.0857 C   0  0  0  0  0  0  0  0  0  0  0  0
  135.5998  130.0205  118.1424 C   0  0  0  0  0  0  0  0  0  0  0  0
  135.9758  129.4127  119.2950 C   0  0  0  0  0  0  0  0  0  0  0  0
  135.1774  131.4000  118.0776 C   0  0  0  0  0  0  0  0  0  0  0  0
  135.1333  132.1675  119.2359 F   0  0  0  0  0  0  0  0  0  0  0  0
  136.3503  127.3254  117.9157 C   0  0  0  0  0  0  0  0  0  0  0  0
  136.3967  128.0274  119.2622 C   0  0  0  0  0  0  0  0  0  0  0  0
  135.3086  132.3561  117.3990 F   0  0  0  0  0  0  0  0  0  0  0  0
  133.7845  130.9790  117.4801 F   0  0  0  0  0  0  0  0  0  0  0  0
  1  2  2  0
  2  3  1  0
  3  4  2  0
  3  5  1  0
  5  6  1  0
  1  7  1  0
  4  8  1  0
  7  8  2  0
  5  9  1  0
  5 10  1  0
M  END
$$$$

     RDKit          3D

 10 11  0  0  0  0  0  0  0  0999 V2000
  136.1981  129.5437  117.5866 C   0  0  0  0  0  0  0  0  0  0  0  0
  136.3854  128.1682  117.5214 C   0  0  0  0  0  0  0  0  0  0  0  0
  135.5114  130.3207  118.5755 C   0  0  0  0  0  0  0  0  0  0  0  0
  134.8764  129.5470  119.5506 C   0  0  0  0  0  0  0  0  0  0  0  0
  135.2544  131.5961  118.4373 O   0  0  0  0  0  0  0  0  0  0  0  0
  134.0269  130.1987  120.5428 C   0  0  0  0  0  0  0  0  0  0  0  0
  135.9426  127.5366  118.5456 C   0  0  0  0  0  0  0  0  0  0  0  0
  135.1952  128.1967  119.6309 C   0  0  0  0  0  0  0  0  0  0  0  0
  133.8299  131.4360  120.4850 O   0  0  0  0  0  0  0  0  0  0  0  0
  134.2821  132.1465  119.3852 C   0  0  0  0  0  0  0  0  0  0  0  0
  1  2  2  0
  1  3  1  0
  3  4  2  0
  3  5  1  0
  4  6  1  0
  2  7  1  0
  4  8  1  0
  7  8  2  0
  6  9  1  0
  5 10  1  0
  9 10  1  0
M  END
$$$$

     RDKit          3D

 10 11  0  0  0  0  0  0  0  0999 V2000
  135.6132  130.9736  118.1529 C   0  0  0  0  0  0  0  0  0  0  0  0
  134.5165  130.4627  118.4787 C   0  0  0  0  0  0  0  0  0  0  0  0
  136.9451  130.3871  118.0993 C   0  0  0  0  0  0  0  0  0  0  0  0
  136.7940  129.1318  118.5938 C   0  0  0  0  0  0  0  0  0  0  0  0
  135.3967  132.5533  117.6029 C   0  0  0  0  0  0  0  0  0  0  0  0
  134.6860  129.1456  118.9666 C   0  0  0  0  0  0  0  0  0  0  0  0
  138.2478  128.5881  118.8695 C   0  0  0  0  0  0  0  0  0  0  0  0
  135.8411  128.5678  118.8165 C   0  0  0  0  0  0  0  0  0  0  0  0
  139.2617  129.5723  118.8028 C   0  0  0  0  0  0  0  0  0  0  0  0
  138.0669  130.8970  117.9098 O   0  0  0  0  0  0  0  0  0  0  0  0
  1  2  1  0
  1  3  2  0
  3  4  1  0
  1  5  1  0
  2  6  2  0
  4  7  1  0
  4  8  2  0
  6  8  1  0
  7  9  2  0
  3 10  1  0
  9 10  1  0
M  END
$$$$

     RDKit          3D

 10 10  0  0  0  0  0  0  0  0999 V2000
  136.3914  127.2705  117.0970 C   0  0  0  0  0  0  0  0  0  0  0  0
  137.5613  127.5059  117.7206 O   0  0  0  0  0  0  0  0  0  0  0  0
  135.9291  128.3684  116.3311 C   0  0  0  0  0  0  0  0  0  0  0  0
  135.0659  129.2388  116.8426 O   0  0  0  0  0  0  0  0  0  0  0  0
  135.6567  129.8238  118.0165 C   0  0  0  0  0  0  0  0  0  0  0  0
  136.9904  129.9898  118.2048 C   0  0  0  0  0  0  0  0  0  0  0  0
  134.6477  130.3833  118.9183 C   0  0  0  0  0  0  0  0  0  0  0  0
  137.6644  128.7770  118.4029 C   0  0  0  0  0  0  0  0  0  0  0  0
  133.6759  131.1827  118.4209 O   0  0  0  0  0  0  0  0  0  0  0  0
  134.7353  129.8595  119.9914 O   0  0  0  0  0  0  0  0  0  0  0  0
  1  2  1  0
  1  3  1  0
  3  4  1  0
  4  5  1  0
  5  6  2  0
  5  7  1  0
  2  8  1  0
  6  8  1  0
  7  9  2  0
  7 10  1  0
M  END
$$$$

     RDKit          3D

 10 10  0  0  0  0  0  0  0  0999 V2000
  129.5804  130.4836  122.4334 C   0  0  0  0  0  0  0  0  0  0  0  0
  130.7593  130.8591  122.9295 C   0  0  0  0  0  0  0  0  0  0  0  0
  129.0571  131.1873  121.5564 C   0  0  0  0  0  0  0  0  0  0  0  0
  131.3863  130.1413  124.2900 Cl  0  0  0  0  0  0  0  0  0  0  0  0
  131.3935  131.9843  122.3653 C   0  0  0  0  0  0  0  0  0  0  0  0
  127.7470  130.7164  121.0397 C   0  0  0  0  0  0  0  0  0  0  0  0
  129.7417  132.1234  121.1671 C   0  0  0  0  0  0  0  0  0  0  0  0
  130.7491  132.5544  121.6028 C   0  0  0  0  0  0  0  0  0  0  0  0
  127.7265  129.7197  120.0532 C   0  0  0  0  0  0  0  0  0  0  0  0
  128.7669  129.0295  119.6835 F   0  0  0  0  0  0  0  0  0  0  0  0
  1  2  2  0
  1  3  1  0
  2  4  1  0
  2  5  1  0
  3  6  1  0
  3  7  2  0
  5  8  2  0
  7  8  1  0
  6  9  2  3
  9 10  1  0
M  END
$$$$

     RDKit          3D

 10 10  0  0  0  0  0  0  0  0999 V2000
  129.1856  130.9948  121.1414 C   0  0  0  0  0  0  0  0  0  0  0  0
  130.3787  130.9362  121.5666 C   0  0  0  0  0  0  0  0  0  0  0  0
  131.3350  130.4509  120.9903 C   0  0  0  0  0  0  0  0  0  0  0  0
  130.4349  131.4317  122.8457 O   0  0  0  0  0  0  0  0  0  0  0  0
  131.1413  129.7475  119.8362 C   0  0  0  0  0  0  0  0  0  0  0  0
  129.8678  129.7074  119.3083 C   0  0  0  0  0  0  0  0  0  0  0  0
  128.0876  131.3614  121.9755 F   0  0  0  0  0  0  0  0  0  0  0  0
  129.7850  132.3567  123.5362 C   0  0  0  0  0  0  0  0  0  0  0  0
  128.8512  130.3932  119.9508 C   0  0  0  0  0  0  0  0  0  0  0  0
  132.5880  129.1888  119.1949 Cl  0  0  0  0  0  0  0  0  0  0  0  0
  1  2  2  0
  2  3  1  0
  2  4  1  0
  3  5  2  0
  5  6  1  0
  1  7  1  0
  4  8  1  0
  1  9  1  0
  6  9  2  0
  5 10  1  0
M  END
$$$$

     RDKit          3D

 10 10  0  0  0  0  0  0  0  0999 V2000
  135.6132  130.9736  118.1529 C   0  0  0  0  0  0  0  0  0  0  0  0
  134.5165  130.4627  118.4787 C   0  0  0  0  0  0  0  0  0  0  0  0
  136.9451  130.3871  118.0993 C   0  0  0  0  0  0  0  0  0  0  0  0
  138.2006  131.0894  117.8253 C   0  0  0  0  0  0  0  0  0  0  0  0
  136.5548  129.0547  118.5950 C   0  0  0  0  0  0  0  0  0  0  0  0
  135.7510  132.5383  117.4239 C   0  0  0  0  0  0  0  0  0  0  0  0
  137.7446  128.1883  118.6319 C   0  0  0  0  0  0  0  0  0  0  0  0
  135.2986  128.7770  119.0784 C   0  0  0  0  0  0  0  0  0  0  0  0
  133.4614  131.5407  118.3895 F   0  0  0  0  0  0  0  0  0  0  0  0
  134.4058  129.3966  118.8732 N   0  0  0  0  0  0  0  0  0  0  0  0
  1  2  1  0
  1  3  2  0
  3  4  1  0
  3  5  1  0
  1  6  1  0
  5  7  1  0
  5  8  2  0
  2  9  1  0
  2 10  2  0
  8 10  1  0
M  END
$$$$

     RDKit          3D

 10 10  0  0  0  0  0  0  0  0999 V2000
  136.1746  127.9468  117.0311 C   0  0  0  0  0  0  0  0  0  0  0  0
  135.7857  129.0854  117.4188 O   0  0  0  0  0  0  0  0  0  0  0  0
  137.3673  127.5409  117.7658 C   0  0  0  0  0  0  0  0  0  0  0  0
  136.9742  126.8182  118.9220 F   0  0  0  0  0  0  0  0  0  0  0  0
  135.8260  129.4353  118.6951 C   0  0  0  0  0  0  0  0  0  0  0  0
  137.1923  129.4627  119.0901 C   0  0  0  0  0  0  0  0  0  0  0  0
  134.5798  129.6049  119.2539 C   0  0  0  0  0  0  0  0  0  0  0  0
  137.6076  130.3955  120.0699 O   0  0  0  0  0  0  0  0  0  0  0  0
  137.8929  128.1753  118.7371 C   0  0  0  0  0  0  0  0  0  0  0  0
  134.5285  130.2499  120.5410 C   0  0  0  0  0  0  0  0  0  0  0  0
  1  2  1  0
  1  3  1  0
  3  4  1  0
  2  5  1  0
  5  6  1  0
  5  7  2  3
  6  8  2  0
  3  9  1  0
  6  9  1  0
  7 10  1  0
M  END
$$$$

     RDKit          3D

 10 10  0  0  0  0  0  0  0  0999 V2000
  129.5804  130.4836  122.4334 C   0  0  0  0  0  0  0  0  0  0  0  0
  130.7593  130.8591  122.9295 C   0  0  0  0  0  0  0  0  0  0  0  0
  129.0571  131.1873  121.5564 C   0  0  0  0  0  0  0  0  0  0  0  0
  131.3863  130.1413  124.2900 Cl  0  0  0  0  0  0  0  0  0  0  0  0
  131.3935  131.9843  122.3653 C   0  0  0  0  0  0  0  0  0  0  0  0
  127.7470  130.7164  121.0397 C   0  0  0  0  0  0  0  0  0  0  0  0
  127.8297  129.8363  120.0874 O   0  0  0  0  0  0  0  0  0  0  0  0
  129.7518  132.0947  121.1136 C   0  0  0  0  0  0  0  0  0  0  0  0
  128.8518  133.0274  120.1436 F   0  0  0  0  0  0  0  0  0  0  0  0
  130.9232  132.7213  121.4136 C   0  0  0  0  0  0  0  0  0  0  0  0
  1  2  2  0
  1  3  1  0
  2  4  1  0
  2  5  1  0
  3  6  1  0
  6  7  2  0
  3  8  2  0
  8  9  1  0
  5 10  2  0
  8 10  1  0
M  END
$$$$
