
     RDKit          3D

 11 11  0  0  0  0  0  0  0  0999 V2000
  139.5345  150.8917  142.2314 C   0  0  0  0  0  0  0  0  0  0  0  0
  139.0136  150.3975  141.0588 C   0  0  0  0  0  0  0  0  0  0  0  0
  138.6967  150.9489  143.4038 C   0  0  0  0  0  0  0  0  0  0  0  0
  137.7126  149.9443  141.0453 C   0  0  0  0  0  0  0  0  0  0  0  0
  137.3879  150.5377  143.3311 C   0  0  0  0  0  0  0  0  0  0  0  0
  136.8221  150.1196  142.4161 C   0  0  0  0  0  0  0  0  0  0  0  0
  139.8764  150.3677  139.7286 C   0  0  0  0  0  0  0  0  0  0  0  0
  141.2531  150.3460  139.9373 C   0  0  0  0  0  0  0  0  0  0  0  0
  136.5447  150.7382  144.8827 Cl  0  0  0  0  0  0  0  0  0  0  0  0
  139.3152  150.3510  138.6203 C   0  0  0  0  0  0  0  0  0  0  0  0
  139.9316  150.5497  137.5302 C   0  0  0  0  0  0  0  0  0  0  0  0
  1  2  2  0
  1  3  1  0
  2  4  1  0
  3  5  2  0
  4  6  2  0
  5  6  1  0
  2  7  1  0
  7  8  1  0
  5  9  1  0
  7 10  2  3
 10 11  1  0
M  END
$$$$
