
     RDKit          3D

 11 12  0  0  0  0  0  0  0  0999 V2000
  138.7091  151.1474  142.6274 C   0  0  0  0  0  0  0  0  0  0  0  0
  138.5250  151.9378  143.5111 C   0  0  0  0  0  0  0  0  0  0  0  0
  137.3808  151.6590  144.3960 C   0  0  0  0  0  0  0  0  0  0  0  0
  139.6671  150.9842  141.6902 C   0  0  0  0  0  0  0  0  0  0  0  0
  136.7223  150.4781  143.9637 C   0  0  0  0  0  0  0  0  0  0  0  0
  137.7855  150.1127  142.3490 C   0  0  0  0  0  0  0  0  0  0  0  0
  138.1041  149.3710  141.0881 C   0  0  0  0  0  0  0  0  0  0  0  0
  139.6099  150.2285  140.5534 C   0  0  0  0  0  0  0  0  0  0  0  0
  135.5840  150.2567  145.0713 C   0  0  0  0  0  0  0  0  0  0  0  0
  136.6933  149.7413  143.0631 C   0  0  0  0  0  0  0  0  0  0  0  0
  140.3083  150.4182  139.7445 C   0  0  0  0  0  0  0  0  0  0  0  0
  1  2  1  0
  2  3  2  0
  1  4  1  0
  3  5  1  0
  1  6  2  0
  6  7  1  0
  4  8  1  0
  7  8  1  0
  5  9  1  0
  5 10  2  0
  6 10  1  0
  8 11  2  0
M  END
$$$$
