
     RDKit          3D

 11 12  0  0  0  0  0  0  0  0999 V2000
  139.2620  151.0920  142.4042 C   0  0  0  0  0  0  0  0  0  0  0  0
  138.8619  152.1309  142.9034 C   0  0  0  0  0  0  0  0  0  0  0  0
  137.9125  151.7980  143.7817 C   0  0  0  0  0  0  0  0  0  0  0  0
  138.7623  149.7969  142.5199 C   0  0  0  0  0  0  0  0  0  0  0  0
  137.2982  152.8723  144.6403 C   0  0  0  0  0  0  0  0  0  0  0  0
  137.4011  150.4535  144.0050 C   0  0  0  0  0  0  0  0  0  0  0  0
  136.4442  150.2742  145.0854 C   0  0  0  0  0  0  0  0  0  0  0  0
  137.9286  149.4919  143.4630 N   0  0  0  0  0  0  0  0  0  0  0  0
  135.9078  151.5018  145.6063 C   0  0  0  0  0  0  0  0  0  0  0  0
  134.8023  151.2942  146.6578 C   0  0  0  0  0  0  0  0  0  0  0  0
  136.3208  152.8106  145.3411 C   0  0  0  0  0  0  0  0  0  0  0  0
  1  2  1  0
  2  3  2  0
  1  4  2  0
  3  5  1  0
  3  6  1  0
  6  7  1  0
  4  8  1  0
  6  8  2  0
  7  9  2  0
  9 10  1  0
  5 11  2  0
  9 11  1  0
M  END
$$$$
