
     RDKit          3D

 11 11  0  0  0  0  0  0  0  0999 V2000
  139.3429  149.9930  140.5895 C   0  0  0  0  0  0  0  0  0  0  0  0
  138.9526  149.9228  139.3665 C   0  0  0  0  0  0  0  0  0  0  0  0
  138.6128  150.1151  141.6415 C   0  0  0  0  0  0  0  0  0  0  0  0
  137.1849  149.8640  141.8304 C   0  0  0  0  0  0  0  0  0  0  0  0
  136.5144  149.7572  140.5779 C   0  0  0  0  0  0  0  0  0  0  0  0
  139.1166  150.5253  143.0849 C   0  0  0  0  0  0  0  0  0  0  0  0
  137.2339  149.6975  139.2863 C   0  0  0  0  0  0  0  0  0  0  0  0
  138.2557  151.2012  143.8675 C   0  0  0  0  0  0  0  0  0  0  0  0
  137.1770  151.1313  144.2957 C   0  0  0  0  0  0  0  0  0  0  0  0
  136.4357  152.1974  144.9810 C   0  0  0  0  0  0  0  0  0  0  0  0
  135.1845  151.9629  145.5890 C   0  0  0  0  0  0  0  0  0  0  0  0
  1  2  2  0
  1  3  1  0
  3  4  1  0
  4  5  2  0
  3  6  1  0
  2  7  1  0
  5  7  1  0
  6  8  2  3
  8  9  1  0
  9 10  1  0
 10 11  1  0
M  END
$$$$
