
     RDKit          3D

 11 11  0  0  0  0  0  0  0  0999 V2000
  139.3946  150.7519  142.0139 C   0  0  0  0  0  0  0  0  0  0  0  0
  139.0647  150.4900  140.7537 C   0  0  0  0  0  0  0  0  0  0  0  0
  138.4477  150.6373  143.0427 C   0  0  0  0  0  0  0  0  0  0  0  0
  137.8331  149.9847  140.4384 C   0  0  0  0  0  0  0  0  0  0  0  0
  136.8990  149.7655  141.3322 C   0  0  0  0  0  0  0  0  0  0  0  0
  138.7710  151.0481  144.4226 C   0  0  0  0  0  0  0  0  0  0  0  0
  137.5960  151.6420  145.1154 C   0  0  0  0  0  0  0  0  0  0  0  0
  137.0599  150.2991  142.6638 C   0  0  0  0  0  0  0  0  0  0  0  0
  140.0692  150.6270  139.6865 C   0  0  0  0  0  0  0  0  0  0  0  0
  136.7221  151.4935  145.8164 C   0  0  0  0  0  0  0  0  0  0  0  0
  135.5162  152.1043  145.6680 C   0  0  0  0  0  0  0  0  0  0  0  0
  1  2  2  0
  1  3  1  0
  2  4  1  0
  4  5  2  0
  3  6  1  0
  6  7  2  3
  3  8  2  0
  5  8  1  0
  2  9  1  0
  7 10  1  0
 10 11  1  0
M  END
$$$$
