
     RDKit          3D

  9  9  0  0  0  0  0  0  0  0999 V2000
  138.7250  151.5761  143.3186 C   0  0  0  0  0  0  0  0  0  0  0  0
  137.9190  152.3260  143.7534 C   0  0  0  0  0  0  0  0  0  0  0  0
  136.7518  151.8065  144.4377 C   0  0  0  0  0  0  0  0  0  0  0  0
  136.7830  150.4602  144.6806 C   0  0  0  0  0  0  0  0  0  0  0  0
  135.8624  152.6133  145.2351 C   0  0  0  0  0  0  0  0  0  0  0  0
  138.4719  150.1666  143.2048 C   0  0  0  0  0  0  0  0  0  0  0  0
  139.3382  149.2634  142.4993 C   0  0  0  0  0  0  0  0  0  0  0  0
  137.4852  149.6207  144.0363 C   0  0  0  0  0  0  0  0  0  0  0  0
  134.6723  152.1334  145.8004 C   0  0  0  0  0  0  0  0  0  0  0  0
  1  2  1  0
  2  3  2  0
  3  4  1  0
  3  5  1  0
  1  6  2  0
  6  7  1  0
  4  8  2  0
  6  8  1  0
  5  9  1  0
M  END
$$$$
