
     RDKit          3D

 12 13  0  0  0  0  0  0  0  0999 V2000
  139.3946  150.7519  142.0139 C   0  0  0  0  0  0  0  0  0  0  0  0
  139.0647  150.4900  140.7537 C   0  0  0  0  0  0  0  0  0  0  0  0
  138.4477  150.6373  143.0427 C   0  0  0  0  0  0  0  0  0  0  0  0
  137.8331  149.9847  140.4384 C   0  0  0  0  0  0  0  0  0  0  0  0
  136.8990  149.7655  141.3322 C   0  0  0  0  0  0  0  0  0  0  0  0
  138.7710  151.0481  144.4226 C   0  0  0  0  0  0  0  0  0  0  0  0
  137.5960  151.6420  145.1154 C   0  0  0  0  0  0  0  0  0  0  0  0
  135.4679  149.4838  140.9159 C   0  0  0  0  0  0  0  0  0  0  0  0
  136.4963  151.6340  144.5181 C   0  0  0  0  0  0  0  0  0  0  0  0
  136.1301  151.2219  143.4596 C   0  0  0  0  0  0  0  0  0  0  0  0
  137.0412  150.5856  142.6761 C   0  0  0  0  0  0  0  0  0  0  0  0
  135.3182  152.4489  145.5246 C   0  0  0  0  0  0  0  0  0  0  0  0
  1  2  2  0
  1  3  1  0
  2  4  1  0
  4  5  2  0
  3  6  1  0
  6  7  2  0
  5  8  1  0
  7  9  1  0
  9 10  2  0
  3 11  2  0
  5 11  1  0
 10 11  1  0
  9 12  1  0
M  END
$$$$
