
     RDKit          3D

 12 13  0  0  0  0  0  0  0  0999 V2000
  140.3024  150.2148  139.4796 Cl  0  0  0  0  0  0  0  0  0  0  0  0
  138.6763  150.1843  140.5310 C   0  0  0  0  0  0  0  0  0  0  0  0
  137.6367  149.3820  140.0914 C   0  0  0  0  0  0  0  0  0  0  0  0
  138.8646  150.7169  141.4514 C   0  0  0  0  0  0  0  0  0  0  0  0
  136.4740  149.4736  140.9548 C   0  0  0  0  0  0  0  0  0  0  0  0
  137.8055  150.8841  142.4594 C   0  0  0  0  0  0  0  0  0  0  0  0
  137.9619  151.6087  143.7233 C   0  0  0  0  0  0  0  0  0  0  0  0
  136.8776  151.8382  144.5067 C   0  0  0  0  0  0  0  0  0  0  0  0
  135.2432  149.0190  140.4385 C   0  0  0  0  0  0  0  0  0  0  0  0
  135.7354  151.1338  144.2605 C   0  0  0  0  0  0  0  0  0  0  0  0
  136.5608  150.2809  141.9766 C   0  0  0  0  0  0  0  0  0  0  0  0
  135.5138  150.7214  143.1168 C   0  0  0  0  0  0  0  0  0  0  0  0
  1  2  1  0
  2  3  2  0
  2  4  1  0
  3  5  1  0
  4  6  2  0
  6  7  1  0
  7  8  2  0
  5  9  1  0
  8 10  1  0
  5 11  2  0
  6 11  1  0
 10 12  2  0
 11 12  1  0
M  END
$$$$
