
     RDKit          3D

 12 13  0  0  0  0  0  0  0  0999 V2000
  139.0001  149.7643  140.3654 C   0  0  0  0  0  0  0  0  0  0  0  0
  138.7141  149.5451  139.1252 C   0  0  0  0  0  0  0  0  0  0  0  0
  138.1592  150.0995  141.2821 C   0  0  0  0  0  0  0  0  0  0  0  0
  137.3238  149.5788  138.6759 C   0  0  0  0  0  0  0  0  0  0  0  0
  137.0151  149.1362  137.4394 O   0  0  0  0  0  0  0  0  0  0  0  0
  136.3858  149.5936  139.3472 C   0  0  0  0  0  0  0  0  0  0  0  0
  135.0528  149.6286  139.2752 C   0  0  0  0  0  0  0  0  0  0  0  0
  138.5598  150.4914  142.6508 C   0  0  0  0  0  0  0  0  0  0  0  0
  137.6889  150.9036  143.6523 C   0  0  0  0  0  0  0  0  0  0  0  0
  136.4231  150.8736  143.2321 C   0  0  0  0  0  0  0  0  0  0  0  0
  136.0503  150.5463  141.9185 C   0  0  0  0  0  0  0  0  0  0  0  0
  136.7687  150.1534  140.9885 C   0  0  0  0  0  0  0  0  0  0  0  0
  1  2  2  0
  1  3  1  0
  2  4  1  0
  4  5  1  0
  4  6  2  0
  6  7  1  0
  3  8  1  0
  8  9  2  0
  9 10  1  0
 10 11  2  0
  3 12  2  0
  6 12  1  0
 11 12  1  0
M  END
$$$$
