
     RDKit          3D

  9  9  0  0  0  0  0  0  0  0999 V2000
  138.9700  151.3143  142.5679 C   0  0  0  0  0  0  0  0  0  0  0  0
  138.6023  152.0885  143.2650 C   0  0  0  0  0  0  0  0  0  0  0  0
  137.4866  151.7382  144.1969 C   0  0  0  0  0  0  0  0  0  0  0  0
  139.9970  151.3974  141.4279 C   0  0  0  0  0  0  0  0  0  0  0  0
  138.4037  150.0644  142.3753 C   0  0  0  0  0  0  0  0  0  0  0  0
  137.0294  150.4899  144.0456 C   0  0  0  0  0  0  0  0  0  0  0  0
  137.4133  149.5786  143.2640 C   0  0  0  0  0  0  0  0  0  0  0  0
  136.9258  152.8266  145.2830 C   0  0  0  0  0  0  0  0  0  0  0  0
  139.7414  150.8295  140.2320 C   0  0  0  0  0  0  0  0  0  0  0  0
  1  2  1  0
  2  3  2  0
  1  4  1  0
  1  5  2  0
  3  6  1  0
  5  7  1  0
  6  7  2  0
  3  8  1  0
  4  9  2  0
M  END
$$$$
