
     RDKit          3D

 12 13  0  0  0  0  0  0  0  0999 V2000
  138.7091  151.1474  142.6274 C   0  0  0  0  0  0  0  0  0  0  0  0
  138.5250  151.9378  143.5111 C   0  0  0  0  0  0  0  0  0  0  0  0
  137.3808  151.6590  144.3960 C   0  0  0  0  0  0  0  0  0  0  0  0
  139.6671  150.9842  141.6902 C   0  0  0  0  0  0  0  0  0  0  0  0
  136.7223  150.4781  143.9637 C   0  0  0  0  0  0  0  0  0  0  0  0
  137.6952  150.0834  142.3787 C   0  0  0  0  0  0  0  0  0  0  0  0
  138.0473  149.3792  141.0795 C   0  0  0  0  0  0  0  0  0  0  0  0
  139.4970  150.3391  140.5091 C   0  0  0  0  0  0  0  0  0  0  0  0
  137.1813  152.6075  145.4741 O   0  0  0  0  0  0  0  0  0  0  0  0
  139.9596  150.2341  139.4262 O   0  0  0  0  0  0  0  0  0  0  0  0
  135.9164  153.0729  145.3745 C   0  0  0  0  0  0  0  0  0  0  0  0
  136.8135  149.6835  143.0230 C   0  0  0  0  0  0  0  0  0  0  0  0
  1  2  1  0
  2  3  2  0
  1  4  1  0
  3  5  1  0
  1  6  2  0
  6  7  1  0
  4  8  1  0
  7  8  1  0
  3  9  1  0
  8 10  2  0
  9 11  1  0
  5 12  2  0
  6 12  1  0
M  END
$$$$
