
     RDKit          3D

 12 13  0  0  0  0  0  0  0  0999 V2000
  139.5546  150.5076  140.4455 C   0  0  0  0  0  0  0  0  0  0  0  0
  139.2164  150.0146  139.3742 C   0  0  0  0  0  0  0  0  0  0  0  0
  138.8577  150.3073  141.5866 C   0  0  0  0  0  0  0  0  0  0  0  0
  139.2276  150.3508  142.8915 C   0  0  0  0  0  0  0  0  0  0  0  0
  138.3509  151.0011  143.9757 C   0  0  0  0  0  0  0  0  0  0  0  0
  137.0512  151.0931  143.5479 C   0  0  0  0  0  0  0  0  0  0  0  0
  136.6885  151.0862  142.4321 C   0  0  0  0  0  0  0  0  0  0  0  0
  137.8089  149.6165  139.2477 C   0  0  0  0  0  0  0  0  0  0  0  0
  137.4177  150.5396  141.3641 C   0  0  0  0  0  0  0  0  0  0  0  0
  136.1089  151.4533  144.8763 C   0  0  0  0  0  0  0  0  0  0  0  0
  136.9195  150.0169  140.2713 C   0  0  0  0  0  0  0  0  0  0  0  0
  135.3743  152.5804  144.7918 C   0  0  0  0  0  0  0  0  0  0  0  0
  1  2  2  0
  1  3  1  0
  3  4  1  0
  4  5  2  0
  5  6  1  0
  6  7  2  0
  2  8  1  0
  3  9  2  0
  7  9  1  0
  6 10  1  0
  8 11  2  0
  9 11  1  0
 10 12  1  0
M  END
$$$$
