
     RDKit          3D

 12 13  0  0  0  0  0  0  0  0999 V2000
  139.5546  150.5076  140.4455 C   0  0  0  0  0  0  0  0  0  0  0  0
  139.2164  150.0146  139.3742 C   0  0  0  0  0  0  0  0  0  0  0  0
  138.8577  150.3073  141.5866 C   0  0  0  0  0  0  0  0  0  0  0  0
  139.2276  150.3508  142.8915 C   0  0  0  0  0  0  0  0  0  0  0  0
  138.3509  151.0011  143.9757 C   0  0  0  0  0  0  0  0  0  0  0  0
  137.0512  151.0931  143.5479 C   0  0  0  0  0  0  0  0  0  0  0  0
  136.6885  151.0862  142.4321 C   0  0  0  0  0  0  0  0  0  0  0  0
  137.8089  149.6165  139.2477 C   0  0  0  0  0  0  0  0  0  0  0  0
  136.9554  149.8011  140.4006 C   0  0  0  0  0  0  0  0  0  0  0  0
  137.3795  150.3678  141.5123 C   0  0  0  0  0  0  0  0  0  0  0  0
  136.2996  151.9200  144.7772 C   0  0  0  0  0  0  0  0  0  0  0  0
  136.7100  153.0903  145.3504 C   0  0  0  0  0  0  0  0  0  0  0  0
  1  2  2  0
  1  3  1  0
  3  4  1  0
  4  5  2  0
  5  6  1  0
  6  7  2  0
  2  8  1  0
  8  9  2  0
  3 10  2  0
  7 10  1  0
  9 10  1  0
  6 11  1  0
 11 12  2  0
M  END
$$$$
