
     RDKit          3D

 12 13  0  0  0  0  0  0  0  0999 V2000
  139.2620  151.0920  142.4042 C   0  0  0  0  0  0  0  0  0  0  0  0
  138.8619  152.1309  142.9034 C   0  0  0  0  0  0  0  0  0  0  0  0
  137.9125  151.7980  143.7817 C   0  0  0  0  0  0  0  0  0  0  0  0
  138.7623  149.7969  142.5199 C   0  0  0  0  0  0  0  0  0  0  0  0
  137.2982  152.8723  144.6403 C   0  0  0  0  0  0  0  0  0  0  0  0
  137.6744  149.7930  143.5190 C   0  0  0  0  0  0  0  0  0  0  0  0
  136.1051  152.5295  145.3396 C   0  0  0  0  0  0  0  0  0  0  0  0
  135.7260  151.1709  145.2062 C   0  0  0  0  0  0  0  0  0  0  0  0
  140.4850  151.1469  141.1831 C   0  0  0  0  0  0  0  0  0  0  0  0
  137.3613  150.6621  144.0842 C   0  0  0  0  0  0  0  0  0  0  0  0
  135.3937  153.6240  145.9599 C   0  0  0  0  0  0  0  0  0  0  0  0
  136.6498  150.2657  144.8905 C   0  0  0  0  0  0  0  0  0  0  0  0
  1  2  1  0
  2  3  2  0
  1  4  2  0
  3  5  1  0
  4  6  1  0
  5  7  2  0
  7  8  1  0
  1  9  1  0
  3 10  1  0
  6 10  2  0
  7 11  1  0
  8 12  2  0
 10 12  1  0
M  END
$$$$
