
     RDKit          3D

  9  9  0  0  0  0  0  0  0  0999 V2000
  138.7250  151.5761  143.3186 C   0  0  0  0  0  0  0  0  0  0  0  0
  137.9190  152.3260  143.7534 C   0  0  0  0  0  0  0  0  0  0  0  0
  136.7518  151.8065  144.4377 C   0  0  0  0  0  0  0  0  0  0  0  0
  138.5742  150.7615  142.3609 C   0  0  0  0  0  0  0  0  0  0  0  0
  136.5038  150.5082  144.1692 C   0  0  0  0  0  0  0  0  0  0  0  0
  137.6908  149.6618  142.4391 C   0  0  0  0  0  0  0  0  0  0  0  0
  135.7142  152.3193  145.4312 C   0  0  0  0  0  0  0  0  0  0  0  0
  136.9288  149.5900  143.1801 C   0  0  0  0  0  0  0  0  0  0  0  0
  139.7766  150.4856  141.3469 C   0  0  0  0  0  0  0  0  0  0  0  0
  1  2  1  0
  2  3  2  0
  1  4  2  0
  3  5  1  0
  4  6  1  0
  3  7  1  0
  5  8  1  0
  6  8  1  0
  4  9  1  0
M  END
$$$$
