
     RDKit          3D

 12 13  0  0  0  0  0  0  0  0999 V2000
  139.5345  150.8917  142.2314 C   0  0  0  0  0  0  0  0  0  0  0  0
  138.9995  151.9980  142.6394 C   0  0  0  0  0  0  0  0  0  0  0  0
  138.9541  149.6529  142.4257 C   0  0  0  0  0  0  0  0  0  0  0  0
  137.7537  151.8935  143.4337 C   0  0  0  0  0  0  0  0  0  0  0  0
  137.3038  153.0170  144.1125 C   0  0  0  0  0  0  0  0  0  0  0  0
  136.3818  152.7500  145.0844 C   0  0  0  0  0  0  0  0  0  0  0  0
  136.0521  151.4317  145.3456 C   0  0  0  0  0  0  0  0  0  0  0  0
  137.3705  150.5238  143.7866 C   0  0  0  0  0  0  0  0  0  0  0  0
  135.7150  153.9421  145.7689 C   0  0  0  0  0  0  0  0  0  0  0  0
  137.9581  149.5787  143.3070 C   0  0  0  0  0  0  0  0  0  0  0  0
  135.1152  151.3690  146.5133 C   0  0  0  0  0  0  0  0  0  0  0  0
  136.3251  150.4418  144.7052 C   0  0  0  0  0  0  0  0  0  0  0  0
  1  2  2  0
  1  3  1  0
  2  4  1  0
  4  5  1  0
  5  6  2  0
  6  7  1  0
  4  8  2  0
  6  9  1  0
  3 10  2  0
  8 10  1  0
  7 11  1  0
  7 12  2  0
  8 12  1  0
M  END
$$$$
