
     RDKit          3D

 12 13  0  0  0  0  0  0  0  0999 V2000
  139.2620  151.0920  142.4042 C   0  0  0  0  0  0  0  0  0  0  0  0
  138.8619  152.1309  142.9034 C   0  0  0  0  0  0  0  0  0  0  0  0
  137.9125  151.7980  143.7817 C   0  0  0  0  0  0  0  0  0  0  0  0
  138.8290  150.4014  141.6007 C   0  0  0  0  0  0  0  0  0  0  0  0
  137.6686  149.9547  141.7571 C   0  0  0  0  0  0  0  0  0  0  0  0
  137.5096  152.5999  144.9582 C   0  0  0  0  0  0  0  0  0  0  0  0
  136.8118  150.7640  143.7827 C   0  0  0  0  0  0  0  0  0  0  0  0
  135.9232  150.7938  144.8969 C   0  0  0  0  0  0  0  0  0  0  0  0
  136.0019  151.8141  145.6610 C   0  0  0  0  0  0  0  0  0  0  0  0
  136.8505  149.5894  140.6103 C   0  0  0  0  0  0  0  0  0  0  0  0
  136.7475  149.9955  142.7453 N   0  0  0  0  0  0  0  0  0  0  0  0
  136.7547  152.7036  145.6837 C   0  0  0  0  0  0  0  0  0  0  0  0
  1  2  1  0
  2  3  2  0
  1  4  2  0
  4  5  1  0
  3  6  1  0
  3  7  1  0
  7  8  2  0
  8  9  1  0
  5 10  1  0
  5 11  2  0
  7 11  1  0
  6 12  2  0
  9 12  2  0
M  END
$$$$
