
     RDKit          3D

 12 13  0  0  0  0  0  0  0  0999 V2000
  139.0001  149.7643  140.3654 C   0  0  0  0  0  0  0  0  0  0  0  0
  138.7141  149.5451  139.1252 C   0  0  0  0  0  0  0  0  0  0  0  0
  138.1592  150.0995  141.2821 C   0  0  0  0  0  0  0  0  0  0  0  0
  137.3238  149.5788  138.6759 C   0  0  0  0  0  0  0  0  0  0  0  0
  136.7102  150.0158  141.0157 C   0  0  0  0  0  0  0  0  0  0  0  0
  135.7301  150.2148  142.0235 C   0  0  0  0  0  0  0  0  0  0  0  0
  136.2830  149.7058  139.6593 C   0  0  0  0  0  0  0  0  0  0  0  0
  136.3071  150.9999  143.1309 C   0  0  0  0  0  0  0  0  0  0  0  0
  138.5250  150.4950  142.6793 C   0  0  0  0  0  0  0  0  0  0  0  0
  135.2765  151.5053  144.1696 C   0  0  0  0  0  0  0  0  0  0  0  0
  137.6295  151.0010  143.5955 C   0  0  0  0  0  0  0  0  0  0  0  0
  138.2290  151.4408  144.7458 C   0  0  0  0  0  0  0  0  0  0  0  0
  1  2  2  0
  1  3  1  0
  2  4  1  0
  3  5  2  0
  5  6  1  0
  4  7  2  0
  5  7  1  0
  6  8  2  0
  3  9  1  0
  8 10  1  0
  8 11  1  0
  9 11  1  0
 11 12  2  0
M  END
$$$$
