
     RDKit          3D

 12 13  0  0  0  0  0  0  0  0999 V2000
  138.7091  151.1474  142.6274 C   0  0  0  0  0  0  0  0  0  0  0  0
  138.5250  151.9378  143.5111 C   0  0  0  0  0  0  0  0  0  0  0  0
  137.3808  151.6590  144.3960 C   0  0  0  0  0  0  0  0  0  0  0  0
  139.6671  150.9842  141.6902 C   0  0  0  0  0  0  0  0  0  0  0  0
  136.7223  150.4781  143.9637 C   0  0  0  0  0  0  0  0  0  0  0  0
  137.6952  150.0834  142.3787 C   0  0  0  0  0  0  0  0  0  0  0  0
  138.0473  149.3792  141.0795 C   0  0  0  0  0  0  0  0  0  0  0  0
  139.4970  150.3391  140.5091 C   0  0  0  0  0  0  0  0  0  0  0  0
  136.6625  149.7122  143.0632 C   0  0  0  0  0  0  0  0  0  0  0  0
  139.9262  150.2183  139.3945 C   0  0  0  0  0  0  0  0  0  0  0  0
  139.8924  149.3004  138.4043 C   0  0  0  0  0  0  0  0  0  0  0  0
  137.1472  152.6308  145.6483 Cl  0  0  0  0  0  0  0  0  0  0  0  0
  1  2  1  0
  2  3  2  0
  1  4  1  0
  3  5  1  0
  1  6  2  0
  6  7  1  0
  4  8  1  0
  7  8  1  0
  5  9  2  0
  6  9  1  0
  8 10  2  3
 10 11  1  0
  3 12  1  0
M  END
$$$$
