
     RDKit          3D

 12 13  0  0  0  0  0  0  0  0999 V2000
  140.3024  150.2148  139.4796 Cl  0  0  0  0  0  0  0  0  0  0  0  0
  138.6763  150.1843  140.5310 C   0  0  0  0  0  0  0  0  0  0  0  0
  137.6367  149.3820  140.0914 C   0  0  0  0  0  0  0  0  0  0  0  0
  138.7708  150.9257  141.6508 C   0  0  0  0  0  0  0  0  0  0  0  0
  138.1273  150.9125  142.4396 C   0  0  0  0  0  0  0  0  0  0  0  0
  136.6299  149.5537  140.9779 C   0  0  0  0  0  0  0  0  0  0  0  0
  138.2522  151.5909  143.8342 C   0  0  0  0  0  0  0  0  0  0  0  0
  137.1959  151.8179  144.6447 C   0  0  0  0  0  0  0  0  0  0  0  0
  136.2204  151.3691  144.3876 C   0  0  0  0  0  0  0  0  0  0  0  0
  134.9690  151.6581  145.2590 C   0  0  0  0  0  0  0  0  0  0  0  0
  136.7408  150.2573  142.2329 C   0  0  0  0  0  0  0  0  0  0  0  0
  135.6662  150.6033  143.1775 N   0  0  0  0  0  0  0  0  0  0  0  0
  1  2  1  0
  2  3  1  0
  2  4  2  0
  4  5  1  0
  3  6  2  0
  5  7  1  0
  7  8  2  0
  8  9  1  0
  9 10  1  0
  5 11  2  0
  6 11  1  0
  9 12  2  0
 11 12  1  0
M  END
$$$$
