
     RDKit          3D

 12 13  0  0  0  0  0  0  0  0999 V2000
  139.2620  151.0920  142.4042 C   0  0  0  0  0  0  0  0  0  0  0  0
  138.8619  152.1309  142.9034 C   0  0  0  0  0  0  0  0  0  0  0  0
  137.9125  151.7980  143.7817 C   0  0  0  0  0  0  0  0  0  0  0  0
  138.8290  150.4014  141.6007 C   0  0  0  0  0  0  0  0  0  0  0  0
  137.6686  149.9547  141.7571 C   0  0  0  0  0  0  0  0  0  0  0  0
  137.5096  152.5999  144.9582 C   0  0  0  0  0  0  0  0  0  0  0  0
  136.8385  149.3585  140.7413 C   0  0  0  0  0  0  0  0  0  0  0  0
  136.8746  150.7394  143.7502 C   0  0  0  0  0  0  0  0  0  0  0  0
  136.7386  150.1407  142.8247 C   0  0  0  0  0  0  0  0  0  0  0  0
  136.3070  152.9829  145.1740 C   0  0  0  0  0  0  0  0  0  0  0  0
  135.2538  152.0522  145.2547 C   0  0  0  0  0  0  0  0  0  0  0  0
  135.8909  150.9756  144.7715 C   0  0  0  0  0  0  0  0  0  0  0  0
  1  2  1  0
  2  3  2  0
  1  4  2  0
  4  5  1  0
  3  6  1  0
  5  7  1  0
  3  8  1  0
  5  9  2  0
  8  9  1  0
  6 10  2  0
 10 11  1  0
  8 12  2  0
 11 12  2  0
M  END
$$$$
