
     RDKit          3D

 13 14  0  0  0  0  0  0  0  0999 V2000
  139.2620  151.0920  142.4042 C   0  0  0  0  0  0  0  0  0  0  0  0
  138.8619  152.1309  142.9034 C   0  0  0  0  0  0  0  0  0  0  0  0
  137.7834  151.8925  143.8932 C   0  0  0  0  0  0  0  0  0  0  0  0
  137.3598  150.5409  144.0625 C   0  0  0  0  0  0  0  0  0  0  0  0
  136.3243  150.4647  145.1225 C   0  0  0  0  0  0  0  0  0  0  0  0
  139.2661  149.7548  142.8054 C   0  0  0  0  0  0  0  0  0  0  0  0
  137.9618  149.6107  143.5791 C   0  0  0  0  0  0  0  0  0  0  0  0
  140.3557  151.2785  141.2946 C   0  0  0  0  0  0  0  0  0  0  0  0
  139.9713  150.5132  140.0182 C   0  0  0  0  0  0  0  0  0  0  0  0
  135.7294  151.6043  145.4300 C   0  0  0  0  0  0  0  0  0  0  0  0
  135.0303  151.8094  146.5581 C   0  0  0  0  0  0  0  0  0  0  0  0
  137.2138  152.9680  144.6751 C   0  0  0  0  0  0  0  0  0  0  0  0
  136.1387  152.9697  145.1031 C   0  0  0  0  0  0  0  0  0  0  0  0
  1  2  1  0
  2  3  2  0
  3  4  1  0
  4  5  2  0
  1  6  1  0
  4  7  1  0
  6  7  2  0
  1  8  1  0
  8  9  1  0
  5 10  1  0
 10 11  1  0
  3 12  1  0
 10 13  2  0
 12 13  2  0
M  END
$$$$
