
     RDKit          3D

 13 14  0  0  0  0  0  0  0  0999 V2000
  138.7091  151.1474  142.6274 C   0  0  0  0  0  0  0  0  0  0  0  0
  138.5250  151.9378  143.5111 C   0  0  0  0  0  0  0  0  0  0  0  0
  137.3909  151.8085  144.0743 C   0  0  0  0  0  0  0  0  0  0  0  0
  136.5966  150.6180  143.9743 C   0  0  0  0  0  0  0  0  0  0  0  0
  137.9826  149.9619  142.2566 C   0  0  0  0  0  0  0  0  0  0  0  0
  136.5070  152.7496  145.0872 C   0  0  0  0  0  0  0  0  0  0  0  0
  135.4505  152.3051  145.6994 C   0  0  0  0  0  0  0  0  0  0  0  0
  135.4654  150.4685  144.8143 C   0  0  0  0  0  0  0  0  0  0  0  0
  134.7549  151.2175  145.5929 C   0  0  0  0  0  0  0  0  0  0  0  0
  137.0621  149.7855  142.9941 C   0  0  0  0  0  0  0  0  0  0  0  0
  140.0457  151.3656  141.7267 O   0  0  0  0  0  0  0  0  0  0  0  0
  139.9898  150.5402  140.5444 C   0  0  0  0  0  0  0  0  0  0  0  0
  134.9008  153.5461  146.5103 C   0  0  0  0  0  0  0  0  0  0  0  0
  1  2  1  0
  2  3  2  0
  3  4  1  0
  1  5  2  0
  3  6  1  0
  6  7  1  0
  4  8  1  0
  7  9  1  0
  8  9  2  0
  4 10  2  0
  5 10  1  0
  1 11  1  0
 11 12  1  0
  7 13  2  0
M  END
$$$$
