
     RDKit          3D

  9  9  0  0  0  0  0  0  0  0999 V2000
  138.9700  151.3143  142.5679 C   0  0  0  0  0  0  0  0  0  0  0  0
  138.6023  152.0885  143.2650 C   0  0  0  0  0  0  0  0  0  0  0  0
  139.7634  151.4680  141.3543 C   0  0  0  0  0  0  0  0  0  0  0  0
  137.7631  151.7028  144.3624 C   0  0  0  0  0  0  0  0  0  0  0  0
  137.3919  150.2989  144.2724 C   0  0  0  0  0  0  0  0  0  0  0  0
  138.4955  149.8606  142.5714 C   0  0  0  0  0  0  0  0  0  0  0  0
  137.7865  149.3644  143.4976 C   0  0  0  0  0  0  0  0  0  0  0  0
  139.7444  150.6694  140.1600 C   0  0  0  0  0  0  0  0  0  0  0  0
  140.5065  150.9544  139.0194 C   0  0  0  0  0  0  0  0  0  0  0  0
  1  2  1  0
  1  3  1  0
  2  4  2  0
  4  5  1  0
  1  6  2  0
  5  7  2  0
  6  7  1  0
  3  8  2  3
  8  9  1  0
M  END
$$$$
