
     RDKit          3D

  9  9  0  0  0  0  0  0  0  0999 V2000
  138.7250  151.5761  143.3186 C   0  0  0  0  0  0  0  0  0  0  0  0
  137.9190  152.3260  143.7534 C   0  0  0  0  0  0  0  0  0  0  0  0
  136.7518  151.8065  144.4377 C   0  0  0  0  0  0  0  0  0  0  0  0
  136.7830  150.4602  144.6806 C   0  0  0  0  0  0  0  0  0  0  0  0
  138.6223  150.0966  143.3696 C   0  0  0  0  0  0  0  0  0  0  0  0
  139.5765  149.2578  142.7736 C   0  0  0  0  0  0  0  0  0  0  0  0
  135.7217  152.7192  144.9496 C   0  0  0  0  0  0  0  0  0  0  0  0
  137.7886  149.6314  144.1031 N   0  0  0  0  0  0  0  0  0  0  0  0
  134.5461  152.3128  145.6888 C   0  0  0  0  0  0  0  0  0  0  0  0
  1  2  1  0
  2  3  2  0
  3  4  1  0
  1  5  2  0
  5  6  1  0
  3  7  1  0
  4  8  2  0
  5  8  1  0
  7  9  1  0
M  END
$$$$
