
     RDKit          3D

 13 14  0  0  0  0  0  0  0  0999 V2000
  139.5546  150.5076  140.4455 C   0  0  0  0  0  0  0  0  0  0  0  0
  139.2164  150.0146  139.3742 C   0  0  0  0  0  0  0  0  0  0  0  0
  138.8577  150.3073  141.5866 C   0  0  0  0  0  0  0  0  0  0  0  0
  139.2276  150.3508  142.8915 C   0  0  0  0  0  0  0  0  0  0  0  0
  138.5491  151.2697  143.6827 C   0  0  0  0  0  0  0  0  0  0  0  0
  137.8571  149.4543  139.3226 C   0  0  0  0  0  0  0  0  0  0  0  0
  137.4559  150.0376  141.2281 C   0  0  0  0  0  0  0  0  0  0  0  0
  137.4125  148.8824  138.0524 C   0  0  0  0  0  0  0  0  0  0  0  0
  136.5650  150.3592  142.5332 C   0  0  0  0  0  0  0  0  0  0  0  0
  137.0839  151.0880  143.5409 C   0  0  0  0  0  0  0  0  0  0  0  0
  136.1664  151.7873  144.6559 C   0  0  0  0  0  0  0  0  0  0  0  0
  136.9943  149.6538  140.3615 C   0  0  0  0  0  0  0  0  0  0  0  0
  136.4617  153.0697  145.0687 C   0  0  0  0  0  0  0  0  0  0  0  0
  1  2  2  0
  1  3  1  0
  3  4  1  0
  4  5  2  0
  2  6  1  0
  3  7  2  0
  6  8  1  0
  7  9  1  0
  5 10  1  0
  9 10  2  0
 10 11  1  0
  6 12  2  0
  7 12  1  0
 11 13  2  0
M  END
$$$$
