
     RDKit          3D

 13 14  0  0  0  0  0  0  0  0999 V2000
  140.3024  150.2148  139.4796 Cl  0  0  0  0  0  0  0  0  0  0  0  0
  138.6763  150.1843  140.5310 C   0  0  0  0  0  0  0  0  0  0  0  0
  137.6367  149.3820  140.0914 C   0  0  0  0  0  0  0  0  0  0  0  0
  138.7469  150.9460  141.6721 C   0  0  0  0  0  0  0  0  0  0  0  0
  137.7520  150.8717  142.6252 C   0  0  0  0  0  0  0  0  0  0  0  0
  136.6300  150.0366  142.2586 C   0  0  0  0  0  0  0  0  0  0  0  0
  137.9571  151.6486  143.9853 C   0  0  0  0  0  0  0  0  0  0  0  0
  137.5450  148.8206  138.9054 C   0  0  0  0  0  0  0  0  0  0  0  0
  135.5114  150.2590  143.2608 C   0  0  0  0  0  0  0  0  0  0  0  0
  136.4351  149.4796  141.0186 C   0  0  0  0  0  0  0  0  0  0  0  0
  135.9122  151.0668  144.4135 C   0  0  0  0  0  0  0  0  0  0  0  0
  134.6892  151.2220  145.4560 C   0  0  0  0  0  0  0  0  0  0  0  0
  137.0179  151.5938  144.7260 C   0  0  0  0  0  0  0  0  0  0  0  0
  1  2  1  0
  2  3  2  0
  2  4  1  0
  4  5  2  0
  5  6  1  0
  5  7  1  0
  3  8  1  0
  6  9  1  0
  3 10  1  0
  6 10  2  0
  9 11  2  0
 11 12  1  0
  7 13  2  0
 11 13  1  0
M  END
$$$$
