
     RDKit          3D

  9  9  0  0  0  0  0  0  0  0999 V2000
  139.3429  149.9930  140.5895 C   0  0  0  0  0  0  0  0  0  0  0  0
  138.9526  149.9228  139.3665 C   0  0  0  0  0  0  0  0  0  0  0  0
  138.6128  150.1151  141.6415 C   0  0  0  0  0  0  0  0  0  0  0  0
  137.1849  149.8640  141.8304 C   0  0  0  0  0  0  0  0  0  0  0  0
  136.4671  150.2714  142.9634 C   0  0  0  0  0  0  0  0  0  0  0  0
  137.3909  150.8172  143.7392 C   0  0  0  0  0  0  0  0  0  0  0  0
  138.8855  150.6115  142.9979 C   0  0  0  0  0  0  0  0  0  0  0  0
  137.3047  151.3927  144.6720 O   0  0  0  0  0  0  0  0  0  0  0  0
  140.7161  150.4280  140.6829 C   0  0  0  0  0  0  0  0  0  0  0  0
  1  2  2  0
  1  3  1  0
  3  4  1  0
  4  5  2  0
  5  6  1  0
  3  7  1  0
  6  7  1  0
  6  8  2  0
  1  9  1  0
M  END
$$$$
