
     RDKit          3D

 13 14  0  0  0  0  0  0  0  0999 V2000
  139.5546  150.5076  140.4455 C   0  0  0  0  0  0  0  0  0  0  0  0
  139.2164  150.0146  139.3742 C   0  0  0  0  0  0  0  0  0  0  0  0
  138.8577  150.3073  141.5866 C   0  0  0  0  0  0  0  0  0  0  0  0
  137.9802  149.2985  139.2390 C   0  0  0  0  0  0  0  0  0  0  0  0
  139.3336  150.9318  142.8840 C   0  0  0  0  0  0  0  0  0  0  0  0
  137.6155  149.8592  141.7296 C   0  0  0  0  0  0  0  0  0  0  0  0
  136.8124  149.9083  142.8503 C   0  0  0  0  0  0  0  0  0  0  0  0
  137.4191  148.7852  138.1092 C   0  0  0  0  0  0  0  0  0  0  0  0
  137.0651  150.9030  143.5436 C   0  0  0  0  0  0  0  0  0  0  0  0
  136.1826  151.3740  144.7122 C   0  0  0  0  0  0  0  0  0  0  0  0
  138.4695  151.3344  143.8424 C   0  0  0  0  0  0  0  0  0  0  0  0
  137.1216  149.1283  140.4906 C   0  0  0  0  0  0  0  0  0  0  0  0
  136.0543  152.4279  145.1700 N   0  0  0  0  0  0  0  0  0  0  0  0
  1  2  2  0
  1  3  1  0
  2  4  1  0
  3  5  1  0
  3  6  2  0
  6  7  1  0
  4  8  1  0
  7  9  2  0
  9 10  1  0
  5 11  2  0
  9 11  1  0
  4 12  2  0
  6 12  1  0
 10 13  2  0
M  END
$$$$
