
     RDKit          3D

 14 15  0  0  0  0  0  0  0  0999 V2000
  139.3429  149.9930  140.5895 C   0  0  0  0  0  0  0  0  0  0  0  0
  138.9526  149.9228  139.3665 C   0  0  0  0  0  0  0  0  0  0  0  0
  138.6128  150.1151  141.6415 C   0  0  0  0  0  0  0  0  0  0  0  0
  137.1849  149.8640  141.8304 C   0  0  0  0  0  0  0  0  0  0  0  0
  136.5144  149.7572  140.5779 C   0  0  0  0  0  0  0  0  0  0  0  0
  139.1889  150.4046  143.0744 C   0  0  0  0  0  0  0  0  0  0  0  0
  138.2456  150.9517  144.0738 C   0  0  0  0  0  0  0  0  0  0  0  0
  137.3804  149.6889  139.2512 C   0  0  0  0  0  0  0  0  0  0  0  0
  137.1687  151.4355  144.0021 C   0  0  0  0  0  0  0  0  0  0  0  0
  136.3391  150.5369  142.8038 C   0  0  0  0  0  0  0  0  0  0  0  0
  136.2872  152.0111  144.8911 C   0  0  0  0  0  0  0  0  0  0  0  0
  135.1733  151.4978  145.4346 C   0  0  0  0  0  0  0  0  0  0  0  0
  134.7283  150.1841  145.3197 C   0  0  0  0  0  0  0  0  0  0  0  0
  134.6621  152.5900  146.3977 C   0  0  0  0  0  0  0  0  0  0  0  0
  1  2  2  0
  1  3  1  0
  3  4  1  0
  4  5  2  0
  3  6  1  0
  6  7  2  0
  2  8  1  0
  5  8  1  0
  7  9  1  0
  4 10  1  0
  9 10  2  0
  9 11  1  0
 11 12  2  3
 12 13  1  0
 12 14  1  0
M  END
$$$$
