
     RDKit          3D

 14 15  0  0  0  0  0  0  0  0999 V2000
  139.5546  150.5076  140.4455 C   0  0  0  0  0  0  0  0  0  0  0  0
  139.2164  150.0146  139.3742 C   0  0  0  0  0  0  0  0  0  0  0  0
  138.8577  150.3073  141.5866 C   0  0  0  0  0  0  0  0  0  0  0  0
  137.9802  149.2985  139.2390 C   0  0  0  0  0  0  0  0  0  0  0  0
  139.3336  150.9318  142.8840 C   0  0  0  0  0  0  0  0  0  0  0  0
  138.3135  151.4959  143.6105 C   0  0  0  0  0  0  0  0  0  0  0  0
  137.0050  151.1284  143.2688 C   0  0  0  0  0  0  0  0  0  0  0  0
  136.0278  151.6441  144.2809 C   0  0  0  0  0  0  0  0  0  0  0  0
  137.1010  149.3447  140.4158 C   0  0  0  0  0  0  0  0  0  0  0  0
  135.6799  149.0225  140.2664 C   0  0  0  0  0  0  0  0  0  0  0  0
  136.1500  152.6376  144.9672 C   0  0  0  0  0  0  0  0  0  0  0  0
  137.5263  149.8943  141.4691 C   0  0  0  0  0  0  0  0  0  0  0  0
  136.8433  150.2033  142.3827 N   0  0  0  0  0  0  0  0  0  0  0  0
  135.2241  152.9872  146.0504 C   0  0  0  0  0  0  0  0  0  0  0  0
  1  2  2  0
  1  3  1  0
  2  4  1  0
  3  5  1  0
  5  6  2  0
  6  7  1  0
  7  8  1  0
  4  9  2  0
  9 10  1  0
  8 11  1  0
  3 12  2  0
  9 12  1  0
  7 13  2  0
 12 13  1  0
 11 14  1  0
M  END
$$$$
