
     RDKit          3D

 14 15  0  0  0  0  0  0  0  0999 V2000
  139.5546  150.5076  140.4455 C   0  0  0  0  0  0  0  0  0  0  0  0
  139.2164  150.0146  139.3742 C   0  0  0  0  0  0  0  0  0  0  0  0
  138.8577  150.3073  141.5866 C   0  0  0  0  0  0  0  0  0  0  0  0
  139.2276  150.3508  142.8915 C   0  0  0  0  0  0  0  0  0  0  0  0
  138.5491  151.2697  143.6827 C   0  0  0  0  0  0  0  0  0  0  0  0
  137.8571  149.4543  139.3226 C   0  0  0  0  0  0  0  0  0  0  0  0
  137.4559  150.0376  141.2281 C   0  0  0  0  0  0  0  0  0  0  0  0
  136.5010  150.2989  142.4542 C   0  0  0  0  0  0  0  0  0  0  0  0
  136.9898  149.5360  140.1367 C   0  0  0  0  0  0  0  0  0  0  0  0
  135.1841  150.3244  142.3537 C   0  0  0  0  0  0  0  0  0  0  0  0
  137.1987  151.0235  143.5208 C   0  0  0  0  0  0  0  0  0  0  0  0
  136.4518  151.7000  144.7154 C   0  0  0  0  0  0  0  0  0  0  0  0
  135.3166  151.0380  145.2007 C   0  0  0  0  0  0  0  0  0  0  0  0
  134.5473  151.6565  146.3237 C   0  0  0  0  0  0  0  0  0  0  0  0
  1  2  2  0
  1  3  1  0
  3  4  1  0
  4  5  2  0
  2  6  1  0
  3  7  2  0
  7  8  1  0
  6  9  2  0
  7  9  1  0
  8 10  1  0
  5 11  1  0
  8 11  2  0
 11 12  1  0
 12 13  2  3
 13 14  1  0
M  END
$$$$
