
     RDKit          3D

 14 15  0  0  0  0  0  0  0  0999 V2000
  139.5546  150.5076  140.4455 C   0  0  0  0  0  0  0  0  0  0  0  0
  139.2164  150.0146  139.3742 C   0  0  0  0  0  0  0  0  0  0  0  0
  138.8577  150.3073  141.5866 C   0  0  0  0  0  0  0  0  0  0  0  0
  139.2276  150.3508  142.8915 C   0  0  0  0  0  0  0  0  0  0  0  0
  138.5491  151.2697  143.6827 C   0  0  0  0  0  0  0  0  0  0  0  0
  137.8571  149.4543  139.3226 C   0  0  0  0  0  0  0  0  0  0  0  0
  137.4559  150.0376  141.2281 C   0  0  0  0  0  0  0  0  0  0  0  0
  136.5010  150.2989  142.4542 C   0  0  0  0  0  0  0  0  0  0  0  0
  137.0173  151.0912  143.5205 C   0  0  0  0  0  0  0  0  0  0  0  0
  136.1793  151.7200  144.4687 C   0  0  0  0  0  0  0  0  0  0  0  0
  135.1971  151.0900  145.1048 C   0  0  0  0  0  0  0  0  0  0  0  0
  136.9197  149.5666  140.2530 C   0  0  0  0  0  0  0  0  0  0  0  0
  135.0476  149.6856  145.1375 O   0  0  0  0  0  0  0  0  0  0  0  0
  134.2966  151.7516  145.9580 C   0  0  0  0  0  0  0  0  0  0  0  0
  1  2  2  0
  1  3  1  0
  3  4  1  0
  4  5  2  0
  2  6  1  0
  3  7  2  0
  7  8  1  0
  5  9  1  0
  8  9  2  0
  9 10  1  0
 10 11  2  3
  6 12  2  0
  7 12  1  0
 11 13  1  0
 11 14  1  0
M  END
$$$$
