
     RDKit          3D

 14 15  0  0  0  0  0  0  0  0999 V2000
  138.7091  151.1474  142.6274 C   0  0  0  0  0  0  0  0  0  0  0  0
  138.5250  151.9378  143.5111 C   0  0  0  0  0  0  0  0  0  0  0  0
  137.3808  151.6590  144.3960 C   0  0  0  0  0  0  0  0  0  0  0  0
  139.6671  150.9842  141.6902 C   0  0  0  0  0  0  0  0  0  0  0  0
  136.7223  150.4781  143.9637 C   0  0  0  0  0  0  0  0  0  0  0  0
  137.7855  150.1127  142.3490 C   0  0  0  0  0  0  0  0  0  0  0  0
  138.1041  149.3710  141.0881 C   0  0  0  0  0  0  0  0  0  0  0  0
  137.2573  148.9419  140.1763 C   0  0  0  0  0  0  0  0  0  0  0  0
  136.7739  149.7552  143.0386 C   0  0  0  0  0  0  0  0  0  0  0  0
  139.4792  150.0700  140.6578 C   0  0  0  0  0  0  0  0  0  0  0  0
  140.1524  149.7626  139.6157 O   0  0  0  0  0  0  0  0  0  0  0  0
  137.1984  152.5396  145.5089 C   0  0  0  0  0  0  0  0  0  0  0  0
  136.1321  153.1658  145.5185 C   0  0  0  0  0  0  0  0  0  0  0  0
  134.9452  152.8550  146.2824 C   0  0  0  0  0  0  0  0  0  0  0  0
  1  2  1  0
  2  3  2  0
  1  4  1  0
  3  5  1  0
  1  6  2  0
  6  7  1  0
  7  8  1  0
  5  9  2  0
  6  9  1  0
  4 10  1  0
  7 10  1  0
 10 11  2  0
  3 12  1  0
 12 13  1  0
 13 14  1  0
M  END
$$$$
