
     RDKit          3D

 14 15  0  0  0  0  0  0  0  0999 V2000
  139.5546  150.5076  140.4455 C   0  0  0  0  0  0  0  0  0  0  0  0
  139.2164  150.0146  139.3742 C   0  0  0  0  0  0  0  0  0  0  0  0
  138.8577  150.3073  141.5866 C   0  0  0  0  0  0  0  0  0  0  0  0
  139.2276  150.3508  142.8915 C   0  0  0  0  0  0  0  0  0  0  0  0
  138.3509  151.0011  143.9757 C   0  0  0  0  0  0  0  0  0  0  0  0
  137.3998  151.4284  143.6194 C   0  0  0  0  0  0  0  0  0  0  0  0
  136.5337  152.2387  144.6008 C   0  0  0  0  0  0  0  0  0  0  0  0
  137.8483  149.5149  139.3370 C   0  0  0  0  0  0  0  0  0  0  0  0
  137.0816  149.5749  140.4415 C   0  0  0  0  0  0  0  0  0  0  0  0
  137.5247  150.0176  141.6255 C   0  0  0  0  0  0  0  0  0  0  0  0
  135.4892  151.6058  145.2677 C   0  0  0  0  0  0  0  0  0  0  0  0
  136.6666  150.6842  142.6078 C   0  0  0  0  0  0  0  0  0  0  0  0
  135.2719  150.3003  145.4473 C   0  0  0  0  0  0  0  0  0  0  0  0
  134.4939  152.3907  146.0965 C   0  0  0  0  0  0  0  0  0  0  0  0
  1  2  2  0
  1  3  1  0
  3  4  1  0
  4  5  2  0
  5  6  1  0
  6  7  1  0
  2  8  1  0
  8  9  2  0
  3 10  2  0
  9 10  1  0
  7 11  2  3
  6 12  2  0
 10 12  1  0
 11 13  1  0
 11 14  1  0
M  END
$$$$
