
     RDKit          3D

 14 15  0  0  0  0  0  0  0  0999 V2000
  140.3024  150.2148  139.4796 Cl  0  0  0  0  0  0  0  0  0  0  0  0
  138.6763  150.1843  140.5310 C   0  0  0  0  0  0  0  0  0  0  0  0
  137.6367  149.3820  140.0914 C   0  0  0  0  0  0  0  0  0  0  0  0
  139.0296  150.8810  141.6190 C   0  0  0  0  0  0  0  0  0  0  0  0
  136.6556  149.6404  140.8181 C   0  0  0  0  0  0  0  0  0  0  0  0
  136.6486  150.4486  141.8740 C   0  0  0  0  0  0  0  0  0  0  0  0
  135.4283  150.7331  142.7845 C   0  0  0  0  0  0  0  0  0  0  0  0
  137.8050  151.0306  142.4471 C   0  0  0  0  0  0  0  0  0  0  0  0
  135.6546  150.8747  144.1281 C   0  0  0  0  0  0  0  0  0  0  0  0
  136.5585  151.5502  144.7332 C   0  0  0  0  0  0  0  0  0  0  0  0
  136.6225  152.0802  145.9888 C   0  0  0  0  0  0  0  0  0  0  0  0
  136.0684  151.6181  147.0050 C   0  0  0  0  0  0  0  0  0  0  0  0
  137.8902  151.9624  144.3306 C   0  0  0  0  0  0  0  0  0  0  0  0
  138.4294  151.7062  143.2113 N   0  0  0  0  0  0  0  0  0  0  0  0
  1  2  1  0
  2  3  2  0
  2  4  1  0
  3  5  1  0
  5  6  2  0
  6  7  1  0
  4  8  2  0
  6  8  1  0
  7  9  2  0
  9 10  1  0
 10 11  1  0
 11 12  2  0
 10 13  2  0
  8 14  1  0
 13 14  1  0
M  END
$$$$
