
     RDKit          3D

  9  9  0  0  0  0  0  0  0  0999 V2000
  139.5345  150.8917  142.2314 C   0  0  0  0  0  0  0  0  0  0  0  0
  139.0136  150.3975  141.0588 C   0  0  0  0  0  0  0  0  0  0  0  0
  138.6967  150.9489  143.4038 C   0  0  0  0  0  0  0  0  0  0  0  0
  137.7126  149.9443  141.0453 C   0  0  0  0  0  0  0  0  0  0  0  0
  137.3879  150.5377  143.3311 C   0  0  0  0  0  0  0  0  0  0  0  0
  136.8221  150.1196  142.4161 C   0  0  0  0  0  0  0  0  0  0  0  0
  139.8764  150.3677  139.7286 C   0  0  0  0  0  0  0  0  0  0  0  0
  136.5533  150.7433  144.8789 Cl  0  0  0  0  0  0  0  0  0  0  0  0
  139.3134  150.3502  138.5943 C   0  0  0  0  0  0  0  0  0  0  0  0
  1  2  2  0
  1  3  1  0
  2  4  1  0
  3  5  2  0
  4  6  2  0
  5  6  1  0
  2  7  1  0
  5  8  1  0
  7  9  2  0
M  END
$$$$
