
     RDKit          3D

 15 16  0  0  0  0  0  0  0  0999 V2000
  139.3429  149.9930  140.5895 C   0  0  0  0  0  0  0  0  0  0  0  0
  138.9526  149.9228  139.3665 C   0  0  0  0  0  0  0  0  0  0  0  0
  138.6128  150.1151  141.6415 C   0  0  0  0  0  0  0  0  0  0  0  0
  137.5731  149.8751  139.0603 C   0  0  0  0  0  0  0  0  0  0  0  0
  137.0927  149.4986  137.8152 C   0  0  0  0  0  0  0  0  0  0  0  0
  139.0049  150.5465  142.9880 C   0  0  0  0  0  0  0  0  0  0  0  0
  138.1933  151.3789  143.6837 C   0  0  0  0  0  0  0  0  0  0  0  0
  136.9028  151.4680  143.1554 C   0  0  0  0  0  0  0  0  0  0  0  0
  136.7362  150.0347  140.2659 C   0  0  0  0  0  0  0  0  0  0  0  0
  136.0023  152.2339  143.9991 C   0  0  0  0  0  0  0  0  0  0  0  0
  135.1075  151.5487  144.8190 C   0  0  0  0  0  0  0  0  0  0  0  0
  135.2749  150.1697  140.0572 C   0  0  0  0  0  0  0  0  0  0  0  0
  137.2239  150.2207  141.6800 C   0  0  0  0  0  0  0  0  0  0  0  0
  136.3277  150.7549  142.4432 C   0  0  0  0  0  0  0  0  0  0  0  0
  135.1261  150.2588  145.0458 C   0  0  0  0  0  0  0  0  0  0  0  0
  1  2  2  0
  1  3  1  0
  2  4  1  0
  4  5  1  0
  3  6  1  0
  6  7  2  0
  7  8  1  0
  4  9  2  0
  8 10  1  0
 10 11  2  3
  9 12  1  0
  3 13  2  0
  9 13  1  0
  8 14  2  0
 13 14  1  0
 11 15  1  0
M  END
$$$$
