
     RDKit          3D

 15 16  0  0  0  0  0  0  0  0999 V2000
  139.5546  150.5076  140.4455 C   0  0  0  0  0  0  0  0  0  0  0  0
  139.2164  150.0146  139.3742 C   0  0  0  0  0  0  0  0  0  0  0  0
  138.8577  150.3073  141.5866 C   0  0  0  0  0  0  0  0  0  0  0  0
  139.2276  150.3508  142.8915 C   0  0  0  0  0  0  0  0  0  0  0  0
  138.5491  151.2697  143.6827 C   0  0  0  0  0  0  0  0  0  0  0  0
  137.8571  149.4543  139.3226 C   0  0  0  0  0  0  0  0  0  0  0  0
  137.4559  150.0376  141.2281 C   0  0  0  0  0  0  0  0  0  0  0  0
  136.5010  150.2989  142.4542 C   0  0  0  0  0  0  0  0  0  0  0  0
  137.0173  151.0912  143.5205 C   0  0  0  0  0  0  0  0  0  0  0  0
  136.1793  151.7200  144.4687 C   0  0  0  0  0  0  0  0  0  0  0  0
  137.4744  148.9137  138.0215 C   0  0  0  0  0  0  0  0  0  0  0  0
  135.2124  151.0786  145.1206 C   0  0  0  0  0  0  0  0  0  0  0  0
  136.9724  149.6409  140.3403 N   0  0  0  0  0  0  0  0  0  0  0  0
  135.0798  149.6762  145.1553 O   0  0  0  0  0  0  0  0  0  0  0  0
  134.3477  151.7531  146.0098 C   0  0  0  0  0  0  0  0  0  0  0  0
  1  2  2  0
  1  3  1  0
  3  4  1  0
  4  5  2  0
  2  6  1  0
  3  7  2  0
  7  8  1  0
  5  9  1  0
  8  9  2  0
  9 10  1  0
  6 11  1  0
 10 12  2  3
  6 13  2  0
  7 13  1  0
 12 14  1  0
 12 15  1  0
M  END
$$$$
