
     RDKit          3D

  9  9  0  0  0  0  0  0  0  0999 V2000
  139.2620  151.0920  142.4042 C   0  0  0  0  0  0  0  0  0  0  0  0
  138.8619  152.1309  142.9034 C   0  0  0  0  0  0  0  0  0  0  0  0
  137.9125  151.7980  143.7817 C   0  0  0  0  0  0  0  0  0  0  0  0
  138.8290  150.4014  141.6007 C   0  0  0  0  0  0  0  0  0  0  0  0
  137.6686  149.9547  141.7571 C   0  0  0  0  0  0  0  0  0  0  0  0
  136.8806  149.2152  140.7428 C   0  0  0  0  0  0  0  0  0  0  0  0
  136.7394  150.9822  143.2806 C   0  0  0  0  0  0  0  0  0  0  0  0
  135.5739  151.3039  144.2631 C   0  0  0  0  0  0  0  0  0  0  0  0
  136.7143  150.1795  142.3428 C   0  0  0  0  0  0  0  0  0  0  0  0
  1  2  1  0
  2  3  2  0
  1  4  2  0
  4  5  1  0
  5  6  1  0
  3  7  1  0
  7  8  1  0
  5  9  1  0
  7  9  1  0
M  END
$$$$
