
     RDKit          3D

 15 16  0  0  0  0  0  0  0  0999 V2000
  139.5546  150.5076  140.4455 C   0  0  0  0  0  0  0  0  0  0  0  0
  139.2164  150.0146  139.3742 C   0  0  0  0  0  0  0  0  0  0  0  0
  138.8577  150.3073  141.5866 C   0  0  0  0  0  0  0  0  0  0  0  0
  139.2276  150.3508  142.8915 C   0  0  0  0  0  0  0  0  0  0  0  0
  138.3509  151.0011  143.9757 C   0  0  0  0  0  0  0  0  0  0  0  0
  137.3998  151.4284  143.6194 C   0  0  0  0  0  0  0  0  0  0  0  0
  136.5337  152.2387  144.6008 C   0  0  0  0  0  0  0  0  0  0  0  0
  137.8483  149.5149  139.3370 C   0  0  0  0  0  0  0  0  0  0  0  0
  136.9622  151.2207  142.2472 C   0  0  0  0  0  0  0  0  0  0  0  0
  137.2887  149.0194  138.2592 C   0  0  0  0  0  0  0  0  0  0  0  0
  137.1487  149.7377  140.5435 C   0  0  0  0  0  0  0  0  0  0  0  0
  135.3866  151.6892  145.1237 C   0  0  0  0  0  0  0  0  0  0  0  0
  137.4719  150.4385  141.5420 C   0  0  0  0  0  0  0  0  0  0  0  0
  137.0474  153.4070  145.0147 C   0  0  0  0  0  0  0  0  0  0  0  0
  134.5843  152.5332  145.9055 C   0  0  0  0  0  0  0  0  0  0  0  0
  1  2  2  0
  1  3  1  0
  3  4  1  0
  4  5  2  0
  5  6  1  0
  6  7  1  0
  2  8  1  0
  6  9  2  0
  8 10  1  0
  8 11  2  0
  7 12  2  3
  3 13  2  0
  9 13  1  0
 11 13  1  0
  7 14  1  0
 12 15  1  0
M  END
$$$$
