
     RDKit          3D

 15 16  0  0  0  0  0  0  0  0999 V2000
  139.5546  150.5076  140.4455 C   0  0  0  0  0  0  0  0  0  0  0  0
  139.2164  150.0146  139.3742 C   0  0  0  0  0  0  0  0  0  0  0  0
  138.8577  150.3073  141.5866 C   0  0  0  0  0  0  0  0  0  0  0  0
  139.2276  150.3508  142.8915 C   0  0  0  0  0  0  0  0  0  0  0  0
  138.5491  151.2697  143.6827 C   0  0  0  0  0  0  0  0  0  0  0  0
  137.8571  149.4543  139.3226 C   0  0  0  0  0  0  0  0  0  0  0  0
  137.4457  151.5292  143.4243 C   0  0  0  0  0  0  0  0  0  0  0  0
  137.0553  149.6488  140.3767 C   0  0  0  0  0  0  0  0  0  0  0  0
  136.5969  152.3859  144.3608 C   0  0  0  0  0  0  0  0  0  0  0  0
  135.5384  149.4618  140.2000 C   0  0  0  0  0  0  0  0  0  0  0  0
  137.5255  150.1431  141.5498 C   0  0  0  0  0  0  0  0  0  0  0  0
  135.4947  151.8511  145.0293 C   0  0  0  0  0  0  0  0  0  0  0  0
  136.7003  150.6838  142.5574 C   0  0  0  0  0  0  0  0  0  0  0  0
  135.3746  150.5692  145.3230 C   0  0  0  0  0  0  0  0  0  0  0  0
  134.4661  152.4484  145.6839 C   0  0  0  0  0  0  0  0  0  0  0  0
  1  2  2  0
  1  3  1  0
  3  4  1  0
  4  5  2  0
  2  6  1  0
  5  7  1  0
  6  8  2  0
  7  9  1  0
  8 10  1  0
  3 11  2  0
  8 11  1  0
  9 12  2  3
  7 13  2  0
 11 13  1  0
 12 14  1  0
 12 15  1  0
M  END
$$$$
