
     RDKit          3D

 15 16  0  0  0  0  0  0  0  0999 V2000
  139.5546  150.5076  140.4455 C   0  0  0  0  0  0  0  0  0  0  0  0
  139.2164  150.0146  139.3742 C   0  0  0  0  0  0  0  0  0  0  0  0
  138.8577  150.3073  141.5866 C   0  0  0  0  0  0  0  0  0  0  0  0
  139.2276  150.3508  142.8915 C   0  0  0  0  0  0  0  0  0  0  0  0
  138.5491  151.2697  143.6827 C   0  0  0  0  0  0  0  0  0  0  0  0
  137.8571  149.4543  139.3226 C   0  0  0  0  0  0  0  0  0  0  0  0
  137.4457  151.5292  143.4243 C   0  0  0  0  0  0  0  0  0  0  0  0
  136.9924  149.5969  140.4311 C   0  0  0  0  0  0  0  0  0  0  0  0
  136.5980  152.3839  144.3652 C   0  0  0  0  0  0  0  0  0  0  0  0
  137.5268  150.1103  141.6056 C   0  0  0  0  0  0  0  0  0  0  0  0
  136.7108  150.8333  142.4297 N   0  0  0  0  0  0  0  0  0  0  0  0
  136.9904  153.6712  144.6008 C   0  0  0  0  0  0  0  0  0  0  0  0
  135.5009  151.9914  145.0880 C   0  0  0  0  0  0  0  0  0  0  0  0
  134.8104  152.9079  145.8663 C   0  0  0  0  0  0  0  0  0  0  0  0
  133.7487  152.3596  146.7344 C   0  0  0  0  0  0  0  0  0  0  0  0
  1  2  2  0
  1  3  1  0
  3  4  1  0
  4  5  2  0
  2  6  1  0
  5  7  1  0
  6  8  2  0
  7  9  1  0
  3 10  2  0
  8 10  1  0
  7 11  2  0
 10 11  1  0
  9 12  2  0
  9 13  1  0
 13 14  2  3
 14 15  1  0
M  END
$$$$
