
     RDKit          3D

 15 16  0  0  0  0  0  0  0  0999 V2000
  139.3429  149.9930  140.5895 C   0  0  0  0  0  0  0  0  0  0  0  0
  138.9526  149.9228  139.3665 C   0  0  0  0  0  0  0  0  0  0  0  0
  138.6128  150.1151  141.6415 C   0  0  0  0  0  0  0  0  0  0  0  0
  137.1849  149.8640  141.8304 C   0  0  0  0  0  0  0  0  0  0  0  0
  136.5144  149.7572  140.5779 C   0  0  0  0  0  0  0  0  0  0  0  0
  139.1166  150.5253  143.0849 C   0  0  0  0  0  0  0  0  0  0  0  0
  138.2341  151.1490  143.8701 C   0  0  0  0  0  0  0  0  0  0  0  0
  136.9087  150.9585  143.7785 C   0  0  0  0  0  0  0  0  0  0  0  0
  139.8171  149.9679  138.2305 C   0  0  0  0  0  0  0  0  0  0  0  0
  136.1345  151.4467  144.9802 C   0  0  0  0  0  0  0  0  0  0  0  0
  135.0787  149.6015  140.5299 C   0  0  0  0  0  0  0  0  0  0  0  0
  136.4353  150.2547  142.9016 N   0  0  0  0  0  0  0  0  0  0  0  0
  137.3811  149.6535  139.3766 C   0  0  0  0  0  0  0  0  0  0  0  0
  136.4742  151.6934  146.1152 C   0  0  0  0  0  0  0  0  0  0  0  0
  135.2952  152.5560  144.9297 C   0  0  0  0  0  0  0  0  0  0  0  0
  1  2  2  0
  1  3  1  0
  3  4  1  0
  4  5  2  0
  3  6  1  0
  6  7  2  0
  7  8  1  0
  2  9  1  0
  8 10  1  0
  5 11  1  0
  4 12  1  0
  8 12  2  0
  2 13  1  0
  5 13  1  0
 10 14  1  0
 10 15  1  0
M  END
$$$$
