
     RDKit          3D

 15 16  0  0  0  0  0  0  0  0999 V2000
  139.5546  150.5076  140.4455 C   0  0  0  0  0  0  0  0  0  0  0  0
  139.2164  150.0146  139.3742 C   0  0  0  0  0  0  0  0  0  0  0  0
  138.8577  150.3073  141.5866 C   0  0  0  0  0  0  0  0  0  0  0  0
  139.2276  150.3508  142.8915 C   0  0  0  0  0  0  0  0  0  0  0  0
  138.5491  151.2697  143.6827 C   0  0  0  0  0  0  0  0  0  0  0  0
  137.8571  149.4543  139.3226 C   0  0  0  0  0  0  0  0  0  0  0  0
  137.4457  151.5292  143.4243 C   0  0  0  0  0  0  0  0  0  0  0  0
  137.0553  149.6488  140.3767 C   0  0  0  0  0  0  0  0  0  0  0  0
  135.5533  149.4893  140.2130 C   0  0  0  0  0  0  0  0  0  0  0  0
  137.4568  150.3649  141.7859 C   0  0  0  0  0  0  0  0  0  0  0  0
  136.6079  152.3539  144.4397 C   0  0  0  0  0  0  0  0  0  0  0  0
  136.7686  153.6561  144.7675 C   0  0  0  0  0  0  0  0  0  0  0  0
  135.3772  151.8117  144.9840 C   0  0  0  0  0  0  0  0  0  0  0  0
  135.4088  151.8942  146.4032 C   0  0  0  0  0  0  0  0  0  0  0  0
  136.6433  150.9572  142.5727 N   0  0  0  0  0  0  0  0  0  0  0  0
  1  2  2  0
  1  3  1  0
  3  4  1  0
  4  5  2  0
  2  6  1  0
  5  7  1  0
  6  8  2  0
  8  9  1  0
  3 10  2  0
  8 10  1  0
  7 11  1  0
 11 12  1  0
 11 13  2  3
 13 14  1  0
  7 15  2  0
 10 15  1  0
M  END
$$$$
