
     RDKit          3D

 16 18  0  0  0  0  0  0  0  0999 V2000
  139.3429  149.9930  140.5895 C   0  0  0  0  0  0  0  0  0  0  0  0
  138.9526  149.9228  139.3665 C   0  0  0  0  0  0  0  0  0  0  0  0
  138.6128  150.1151  141.6415 C   0  0  0  0  0  0  0  0  0  0  0  0
  137.1849  149.8640  141.8304 C   0  0  0  0  0  0  0  0  0  0  0  0
  136.5144  149.7572  140.5779 C   0  0  0  0  0  0  0  0  0  0  0  0
  139.1166  150.5253  143.0849 C   0  0  0  0  0  0  0  0  0  0  0  0
  138.2341  151.1490  143.8701 C   0  0  0  0  0  0  0  0  0  0  0  0
  136.9087  150.9585  143.7785 C   0  0  0  0  0  0  0  0  0  0  0  0
  135.1108  149.6280  140.3918 C   0  0  0  0  0  0  0  0  0  0  0  0
  136.1195  151.4013  144.9642 C   0  0  0  0  0  0  0  0  0  0  0  0
  136.4276  150.2037  142.9060 C   0  0  0  0  0  0  0  0  0  0  0  0
  136.4077  151.3923  146.2159 C   0  0  0  0  0  0  0  0  0  0  0  0
  134.8911  152.0731  144.7760 C   0  0  0  0  0  0  0  0  0  0  0  0
  137.4473  149.6691  139.3369 C   0  0  0  0  0  0  0  0  0  0  0  0
  134.2833  152.5925  146.0197 C   0  0  0  0  0  0  0  0  0  0  0  0
  135.4680  152.2905  146.9403 C   0  0  0  0  0  0  0  0  0  0  0  0
  1  2  2  0
  1  3  1  0
  3  4  1  0
  4  5  2  0
  3  6  1  0
  6  7  2  0
  7  8  1  0
  5  9  1  0
  8 10  1  0
  4 11  1  0
  8 11  2  0
 10 12  1  0
 10 13  2  0
  2 14  1  0
  5 14  1  0
 13 15  1  0
 12 16  1  0
 15 16  1  0
M  END
$$$$
