
     RDKit          3D

 16 18  0  0  0  0  0  0  0  0999 V2000
  139.3429  149.9930  140.5895 C   0  0  0  0  0  0  0  0  0  0  0  0
  138.9526  149.9228  139.3665 C   0  0  0  0  0  0  0  0  0  0  0  0
  138.6128  150.1151  141.6415 C   0  0  0  0  0  0  0  0  0  0  0  0
  137.5731  149.8751  139.0603 C   0  0  0  0  0  0  0  0  0  0  0  0
  136.7804  149.7030  140.1442 C   0  0  0  0  0  0  0  0  0  0  0  0
  139.1254  150.3586  143.0279 C   0  0  0  0  0  0  0  0  0  0  0  0
  138.2371  150.8994  144.0334 C   0  0  0  0  0  0  0  0  0  0  0  0
  136.9404  150.9973  143.6140 C   0  0  0  0  0  0  0  0  0  0  0  0
  136.5000  150.7098  142.3403 C   0  0  0  0  0  0  0  0  0  0  0  0
  137.2355  150.2075  141.4520 C   0  0  0  0  0  0  0  0  0  0  0  0
  136.0530  151.7111  144.7993 C   0  0  0  0  0  0  0  0  0  0  0  0
  134.9673  151.3280  145.1340 C   0  0  0  0  0  0  0  0  0  0  0  0
  136.6725  152.8694  145.4545 C   0  0  0  0  0  0  0  0  0  0  0  0
  134.3589  151.9058  146.1206 C   0  0  0  0  0  0  0  0  0  0  0  0
  133.2056  151.4862  146.7859 C   0  0  0  0  0  0  0  0  0  0  0  0
  135.1907  152.8289  146.5465 C   0  0  0  0  0  0  0  0  0  0  0  0
  1  2  2  0
  1  3  1  0
  2  4  1  0
  4  5  2  0
  3  6  1  0
  6  7  2  0
  7  8  1  0
  8  9  2  0
  3 10  2  0
  5 10  1  0
  9 10  1  0
  8 11  1  0
 11 12  2  0
 11 13  1  0
 12 14  1  0
 14 15  1  0
 13 16  1  0
 14 16  2  0
M  END
$$$$
