
     RDKit          3D

 16 18  0  0  0  0  0  0  0  0999 V2000
  139.3429  149.9930  140.5895 C   0  0  0  0  0  0  0  0  0  0  0  0
  138.9526  149.9228  139.3665 C   0  0  0  0  0  0  0  0  0  0  0  0
  138.6128  150.1151  141.6415 C   0  0  0  0  0  0  0  0  0  0  0  0
  137.1849  149.8640  141.8304 C   0  0  0  0  0  0  0  0  0  0  0  0
  136.5144  149.7572  140.5779 C   0  0  0  0  0  0  0  0  0  0  0  0
  139.1166  150.5253  143.0849 C   0  0  0  0  0  0  0  0  0  0  0  0
  138.2341  151.1490  143.8701 C   0  0  0  0  0  0  0  0  0  0  0  0
  136.9087  150.9585  143.7785 C   0  0  0  0  0  0  0  0  0  0  0  0
  139.8171  149.9679  138.2305 C   0  0  0  0  0  0  0  0  0  0  0  0
  136.2940  150.3278  142.7973 C   0  0  0  0  0  0  0  0  0  0  0  0
  136.0731  151.6127  145.0642 C   0  0  0  0  0  0  0  0  0  0  0  0
  136.2292  151.5699  146.1893 C   0  0  0  0  0  0  0  0  0  0  0  0
  135.3063  152.6009  144.7938 C   0  0  0  0  0  0  0  0  0  0  0  0
  134.8788  153.3151  146.0046 C   0  0  0  0  0  0  0  0  0  0  0  0
  135.5019  152.5081  147.0490 C   0  0  0  0  0  0  0  0  0  0  0  0
  137.2727  149.6006  139.2892 C   0  0  0  0  0  0  0  0  0  0  0  0
  1  2  2  0
  1  3  1  0
  3  4  1  0
  4  5  2  0
  3  6  1  0
  6  7  2  0
  7  8  1  0
  2  9  1  0
  4 10  1  0
  8 10  2  0
  8 11  1  0
 11 12  1  0
 11 13  2  0
 13 14  1  0
 12 15  2  0
 14 15  1  0
  2 16  1  0
  5 16  1  0
M  END
$$$$
