
     RDKit          3D

 16 17  0  0  0  0  0  0  0  0999 V2000
  139.3429  149.9930  140.5895 C   0  0  0  0  0  0  0  0  0  0  0  0
  138.9526  149.9228  139.3665 C   0  0  0  0  0  0  0  0  0  0  0  0
  138.6128  150.1151  141.6415 C   0  0  0  0  0  0  0  0  0  0  0  0
  137.1849  149.8640  141.8304 C   0  0  0  0  0  0  0  0  0  0  0  0
  136.5144  149.7572  140.5779 C   0  0  0  0  0  0  0  0  0  0  0  0
  139.1889  150.4046  143.0744 C   0  0  0  0  0  0  0  0  0  0  0  0
  138.2456  150.9517  144.0738 C   0  0  0  0  0  0  0  0  0  0  0  0
  139.6584  149.8786  138.1597 C   0  0  0  0  0  0  0  0  0  0  0  0
  135.0341  149.6412  140.5207 C   0  0  0  0  0  0  0  0  0  0  0  0
  137.2674  151.4393  144.2011 C   0  0  0  0  0  0  0  0  0  0  0  0
  136.9353  149.5773  139.1974 C   0  0  0  0  0  0  0  0  0  0  0  0
  136.3838  151.2624  145.2965 C   0  0  0  0  0  0  0  0  0  0  0  0
  138.0189  149.7516  138.6630 C   0  0  0  0  0  0  0  0  0  0  0  0
  135.0637  151.9088  145.3611 C   0  0  0  0  0  0  0  0  0  0  0  0
  136.5135  152.2136  143.2637 C   0  0  0  0  0  0  0  0  0  0  0  0
  134.3332  151.8549  146.6174 C   0  0  0  0  0  0  0  0  0  0  0  0
  1  2  2  0
  1  3  1  0
  3  4  1  0
  4  5  2  0
  3  6  1  0
  6  7  2  3
  2  8  1  0
  5  9  1  0
  7 10  1  0
  5 11  1  0
 10 12  1  0
  2 13  1  0
  8 13  1  0
 11 13  2  0
 12 14  2  3
 10 15  2  0
 14 16  1  0
M  END
$$$$
