
     RDKit          3D

 16 17  0  0  0  0  0  0  0  0999 V2000
  139.5546  150.5076  140.4455 C   0  0  0  0  0  0  0  0  0  0  0  0
  139.2164  150.0146  139.3742 C   0  0  0  0  0  0  0  0  0  0  0  0
  138.8577  150.3073  141.5866 C   0  0  0  0  0  0  0  0  0  0  0  0
  139.2276  150.3508  142.8915 C   0  0  0  0  0  0  0  0  0  0  0  0
  138.3509  151.0011  143.9757 C   0  0  0  0  0  0  0  0  0  0  0  0
  137.3998  151.4284  143.6194 C   0  0  0  0  0  0  0  0  0  0  0  0
  136.5337  152.2387  144.6008 C   0  0  0  0  0  0  0  0  0  0  0  0
  136.9469  151.2646  142.2219 C   0  0  0  0  0  0  0  0  0  0  0  0
  137.5648  150.6466  141.3565 C   0  0  0  0  0  0  0  0  0  0  0  0
  136.9392  153.4523  145.0587 C   0  0  0  0  0  0  0  0  0  0  0  0
  135.4747  151.7207  145.2170 C   0  0  0  0  0  0  0  0  0  0  0  0
  136.1720  154.0699  146.0042 C   0  0  0  0  0  0  0  0  0  0  0  0
  140.0097  150.1651  138.1123 C   0  0  0  0  0  0  0  0  0  0  0  0
  135.2740  153.3676  146.4852 C   0  0  0  0  0  0  0  0  0  0  0  0
  135.1652  150.3424  144.7564 C   0  0  0  0  0  0  0  0  0  0  0  0
  134.7454  152.1677  146.2253 C   0  0  0  0  0  0  0  0  0  0  0  0
  1  2  2  3
  1  3  1  0
  3  4  1  0
  4  5  2  0
  5  6  1  0
  6  7  1  0
  6  8  2  0
  3  9  2  0
  8  9  1  0
  7 10  2  0
  7 11  1  0
 10 12  1  0
  2 13  1  0
 12 14  2  0
 11 15  1  0
 11 16  2  0
 14 16  1  0
M  END
$$$$
