
     RDKit          3D

 10 10  0  0  0  0  0  0  0  0999 V2000
  139.3946  150.7519  142.0139 C   0  0  0  0  0  0  0  0  0  0  0  0
  139.0647  150.4900  140.7537 C   0  0  0  0  0  0  0  0  0  0  0  0
  138.4477  150.6373  143.0427 C   0  0  0  0  0  0  0  0  0  0  0  0
  137.8331  149.9847  140.4384 C   0  0  0  0  0  0  0  0  0  0  0  0
  136.8172  149.7858  141.4639 C   0  0  0  0  0  0  0  0  0  0  0  0
  138.7924  151.0563  144.4369 C   0  0  0  0  0  0  0  0  0  0  0  0
  137.7738  151.8330  144.9215 C   0  0  0  0  0  0  0  0  0  0  0  0
  137.0693  150.3283  142.7522 C   0  0  0  0  0  0  0  0  0  0  0  0
  136.8008  151.5962  145.8054 C   0  0  0  0  0  0  0  0  0  0  0  0
  140.1676  150.6534  139.5612 C   0  0  0  0  0  0  0  0  0  0  0  0
  1  2  2  0
  1  3  1  0
  2  4  1  0
  4  5  2  0
  3  6  1  0
  6  7  2  3
  3  8  2  0
  5  8  1  0
  7  9  1  0
  2 10  1  0
M  END
$$$$
