
     RDKit          3D

 10 11  0  0  0  0  0  0  0  0999 V2000
  139.3429  149.9930  140.5895 C   0  0  0  0  0  0  0  0  0  0  0  0
  138.9526  149.9228  139.3665 C   0  0  0  0  0  0  0  0  0  0  0  0
  138.6128  150.1151  141.6415 C   0  0  0  0  0  0  0  0  0  0  0  0
  137.1849  149.8640  141.8304 C   0  0  0  0  0  0  0  0  0  0  0  0
  136.5144  149.7572  140.5779 C   0  0  0  0  0  0  0  0  0  0  0  0
  139.1166  150.5253  143.0849 C   0  0  0  0  0  0  0  0  0  0  0  0
  138.1694  151.0130  144.0451 C   0  0  0  0  0  0  0  0  0  0  0  0
  137.2175  149.6795  139.2586 C   0  0  0  0  0  0  0  0  0  0  0  0
  136.6024  150.3475  142.9876 N   0  0  0  0  0  0  0  0  0  0  0  0
  137.0058  150.7071  143.9930 C   0  0  0  0  0  0  0  0  0  0  0  0
  1  2  2  0
  1  3  1  0
  3  4  1  0
  4  5  2  0
  3  6  1  0
  6  7  2  0
  2  8  1  0
  5  8  1  0
  4  9  1  0
  7 10  1  0
  9 10  2  0
M  END
$$$$
