
     RDKit          3D

 10 10  0  0  0  0  0  0  0  0999 V2000
  139.5345  150.8917  142.2314 C   0  0  0  0  0  0  0  0  0  0  0  0
  139.0136  150.3975  141.0588 C   0  0  0  0  0  0  0  0  0  0  0  0
  138.6967  150.9489  143.4038 C   0  0  0  0  0  0  0  0  0  0  0  0
  137.7126  149.9443  141.0453 C   0  0  0  0  0  0  0  0  0  0  0  0
  137.3879  150.5377  143.3311 C   0  0  0  0  0  0  0  0  0  0  0  0
  136.8757  150.0562  142.1540 C   0  0  0  0  0  0  0  0  0  0  0  0
  136.4807  150.7354  144.7887 Cl  0  0  0  0  0  0  0  0  0  0  0  0
  139.9064  150.3882  139.7337 C   0  0  0  0  0  0  0  0  0  0  0  0
  141.2680  150.3898  139.9366 C   0  0  0  0  0  0  0  0  0  0  0  0
  139.4320  150.4172  138.8027 O   0  0  0  0  0  0  0  0  0  0  0  0
  1  2  2  0
  1  3  1  0
  2  4  1  0
  3  5  2  0
  4  6  2  0
  5  6  1  0
  5  7  1  0
  2  8  1  0
  8  9  1  0
  8 10  2  0
M  END
$$$$
