
     RDKit          3D

 10 10  0  0  0  0  0  0  0  0999 V2000
  139.3429  149.9930  140.5895 C   0  0  0  0  0  0  0  0  0  0  0  0
  138.9526  149.9228  139.3665 C   0  0  0  0  0  0  0  0  0  0  0  0
  138.6128  150.1151  141.6415 C   0  0  0  0  0  0  0  0  0  0  0  0
  137.1849  149.8640  141.8304 C   0  0  0  0  0  0  0  0  0  0  0  0
  136.5144  149.7572  140.5779 C   0  0  0  0  0  0  0  0  0  0  0  0
  135.0843  149.6706  140.4090 C   0  0  0  0  0  0  0  0  0  0  0  0
  137.3672  149.7345  139.3124 C   0  0  0  0  0  0  0  0  0  0  0  0
  140.8143  150.3343  140.7273 C   0  0  0  0  0  0  0  0  0  0  0  0
  139.0528  150.3458  143.0019 C   0  0  0  0  0  0  0  0  0  0  0  0
  138.3871  151.1322  143.8309 C   0  0  0  0  0  0  0  0  0  0  0  0
  1  2  2  0
  1  3  1  0
  3  4  1  0
  4  5  2  0
  5  6  1  0
  2  7  1  0
  5  7  1  0
  1  8  1  0
  3  9  2  3
  9 10  1  0
M  END
$$$$
