
     RDKit          3D

  9  9  0  0  0  0  0  0  0  0999 V2000
  138.9700  151.3143  142.5679 C   0  0  0  0  0  0  0  0  0  0  0  0
  138.6023  152.0885  143.2650 C   0  0  0  0  0  0  0  0  0  0  0  0
  137.4866  151.7382  144.1969 C   0  0  0  0  0  0  0  0  0  0  0  0
  139.9970  151.3974  141.4279 C   0  0  0  0  0  0  0  0  0  0  0  0
  137.1554  150.3528  144.0258 C   0  0  0  0  0  0  0  0  0  0  0  0
  138.3481  149.9264  142.4629 C   0  0  0  0  0  0  0  0  0  0  0  0
  137.5465  149.4608  143.3190 C   0  0  0  0  0  0  0  0  0  0  0  0
  139.7471  150.8881  140.2515 C   0  0  0  0  0  0  0  0  0  0  0  0
  136.8351  152.7302  145.2045 C   0  0  0  0  0  0  0  0  0  0  0  0
  1  2  1  0
  2  3  2  0
  1  4  1  0
  3  5  1  0
  1  6  2  0
  5  7  2  0
  6  7  1  0
  4  8  1  0
  3  9  1  0
M  END
$$$$
