
     RDKit          3D

 10 10  0  0  0  0  0  0  0  0999 V2000
  138.7250  151.5761  143.3186 C   0  0  0  0  0  0  0  0  0  0  0  0
  137.9190  152.3260  143.7534 C   0  0  0  0  0  0  0  0  0  0  0  0
  136.7518  151.8065  144.4377 C   0  0  0  0  0  0  0  0  0  0  0  0
  138.5742  150.7615  142.3609 C   0  0  0  0  0  0  0  0  0  0  0  0
  136.5038  150.5082  144.1692 C   0  0  0  0  0  0  0  0  0  0  0  0
  137.6908  149.6618  142.4391 C   0  0  0  0  0  0  0  0  0  0  0  0
  136.6727  149.7129  143.4278 C   0  0  0  0  0  0  0  0  0  0  0  0
  136.0297  152.7035  145.3429 C   0  0  0  0  0  0  0  0  0  0  0  0
  139.7179  150.3598  141.3084 C   0  0  0  0  0  0  0  0  0  0  0  0
  134.8634  152.2464  145.9646 C   0  0  0  0  0  0  0  0  0  0  0  0
  1  2  1  0
  2  3  2  0
  1  4  2  0
  3  5  1  0
  4  6  1  0
  5  7  2  0
  6  7  1  0
  3  8  1  0
  4  9  1  0
  8 10  1  0
M  END
$$$$
