
     RDKit          3D

 10 10  0  0  0  0  0  0  0  0999 V2000
  139.5345  150.8917  142.2314 C   0  0  0  0  0  0  0  0  0  0  0  0
  139.0136  150.3975  141.0588 C   0  0  0  0  0  0  0  0  0  0  0  0
  138.6967  150.9489  143.4038 C   0  0  0  0  0  0  0  0  0  0  0  0
  137.7126  149.9443  141.0453 C   0  0  0  0  0  0  0  0  0  0  0  0
  137.3879  150.5377  143.3311 C   0  0  0  0  0  0  0  0  0  0  0  0
  136.8293  150.0151  142.1591 C   0  0  0  0  0  0  0  0  0  0  0  0
  139.8184  150.3884  139.8608 C   0  0  0  0  0  0  0  0  0  0  0  0
  141.2270  150.3685  140.0113 C   0  0  0  0  0  0  0  0  0  0  0  0
  139.4322  150.4614  138.8326 O   0  0  0  0  0  0  0  0  0  0  0  0
  136.5222  150.7054  144.5107 C   0  0  0  0  0  0  0  0  0  0  0  0
  1  2  2  0
  1  3  1  0
  2  4  1  0
  3  5  2  0
  4  6  2  0
  5  6  1  0
  2  7  1  0
  7  8  1  0
  7  9  2  0
  5 10  1  0
M  END
$$$$
