
     RDKit          3D

 10 11  0  0  0  0  0  0  0  0999 V2000
  139.3429  149.9930  140.5895 C   0  0  0  0  0  0  0  0  0  0  0  0
  138.9526  149.9228  139.3665 C   0  0  0  0  0  0  0  0  0  0  0  0
  138.6128  150.1151  141.6415 C   0  0  0  0  0  0  0  0  0  0  0  0
  137.1849  149.8640  141.8304 C   0  0  0  0  0  0  0  0  0  0  0  0
  136.5144  149.7572  140.5779 C   0  0  0  0  0  0  0  0  0  0  0  0
  139.1889  150.4046  143.0744 C   0  0  0  0  0  0  0  0  0  0  0  0
  138.2456  150.9517  144.0738 C   0  0  0  0  0  0  0  0  0  0  0  0
  137.3804  149.6889  139.2512 C   0  0  0  0  0  0  0  0  0  0  0  0
  137.1687  151.4355  144.0021 C   0  0  0  0  0  0  0  0  0  0  0  0
  136.2599  150.3544  142.8558 C   0  0  0  0  0  0  0  0  0  0  0  0
  1  2  2  0
  1  3  1  0
  3  4  1  0
  4  5  2  0
  3  6  1  0
  6  7  2  0
  2  8  1  0
  5  8  1  0
  7  9  1  0
  4 10  1  0
  9 10  2  0
M  END
$$$$
