
     RDKit          3D

 10 11  0  0  0  0  0  0  0  0999 V2000
  139.2620  151.0920  142.4042 C   0  0  0  0  0  0  0  0  0  0  0  0
  138.8619  152.1309  142.9034 C   0  0  0  0  0  0  0  0  0  0  0  0
  137.9125  151.7980  143.7817 C   0  0  0  0  0  0  0  0  0  0  0  0
  138.8290  150.4014  141.6007 C   0  0  0  0  0  0  0  0  0  0  0  0
  137.6686  149.9547  141.7571 C   0  0  0  0  0  0  0  0  0  0  0  0
  137.5096  152.5999  144.9582 C   0  0  0  0  0  0  0  0  0  0  0  0
  136.7963  150.4993  142.8967 C   0  0  0  0  0  0  0  0  0  0  0  0
  136.8846  151.2100  143.7935 C   0  0  0  0  0  0  0  0  0  0  0  0
  135.9754  151.5310  144.8027 C   0  0  0  0  0  0  0  0  0  0  0  0
  136.3742  152.3797  145.4004 N   0  0  0  0  0  0  0  0  0  0  0  0
  1  2  1  0
  2  3  2  0
  1  4  2  0
  4  5  1  0
  3  6  1  0
  5  7  2  0
  3  8  1  0
  7  8  1  0
  8  9  2  0
  6 10  2  0
  9 10  1  0
M  END
$$$$
