
     RDKit          3D

 10 11  0  0  0  0  0  0  0  0999 V2000
  138.9700  151.3143  142.5679 C   0  0  0  0  0  0  0  0  0  0  0  0
  138.6023  152.0885  143.2650 C   0  0  0  0  0  0  0  0  0  0  0  0
  137.4866  151.7382  144.1969 C   0  0  0  0  0  0  0  0  0  0  0  0
  139.9970  151.3974  141.4279 C   0  0  0  0  0  0  0  0  0  0  0  0
  137.1554  150.3528  144.0258 C   0  0  0  0  0  0  0  0  0  0  0  0
  139.6392  150.7247  140.2349 C   0  0  0  0  0  0  0  0  0  0  0  0
  138.4634  149.8881  142.1128 C   0  0  0  0  0  0  0  0  0  0  0  0
  137.5486  149.5240  143.0495 C   0  0  0  0  0  0  0  0  0  0  0  0
  138.9243  149.4531  140.9098 C   0  0  0  0  0  0  0  0  0  0  0  0
  136.9491  152.6451  145.3279 C   0  0  0  0  0  0  0  0  0  0  0  0
  1  2  1  0
  2  3  2  0
  1  4  1  0
  3  5  1  0
  4  6  2  0
  1  7  2  0
  5  8  2  0
  7  8  1  0
  6  9  1  0
  7  9  1  0
  3 10  1  0
M  END
$$$$
