
     RDKit          3D

 10 10  0  0  0  0  0  0  0  0999 V2000
  139.2620  151.0920  142.4042 C   0  0  0  0  0  0  0  0  0  0  0  0
  138.8619  152.1309  142.9034 C   0  0  0  0  0  0  0  0  0  0  0  0
  137.9125  151.7980  143.7817 C   0  0  0  0  0  0  0  0  0  0  0  0
  138.8290  150.4014  141.6007 C   0  0  0  0  0  0  0  0  0  0  0  0
  137.6686  149.9547  141.7571 C   0  0  0  0  0  0  0  0  0  0  0  0
  137.5096  152.5999  144.9582 C   0  0  0  0  0  0  0  0  0  0  0  0
  136.8118  150.7640  143.7827 C   0  0  0  0  0  0  0  0  0  0  0  0
  136.3087  153.1095  145.0927 C   0  0  0  0  0  0  0  0  0  0  0  0
  135.3847  152.6797  146.1352 C   0  0  0  0  0  0  0  0  0  0  0  0
  136.6594  150.0344  142.7169 C   0  0  0  0  0  0  0  0  0  0  0  0
  1  2  1  0
  2  3  2  0
  1  4  2  0
  4  5  1  0
  3  6  1  0
  3  7  1  0
  6  8  1  0
  8  9  1  0
  5 10  1  0
  7 10  1  0
M  END
$$$$
