
     RDKit          3D

 10 10  0  0  0  0  0  0  0  0999 V2000
  140.3024  150.2148  139.4796 Cl  0  0  0  0  0  0  0  0  0  0  0  0
  138.6763  150.1843  140.5310 C   0  0  0  0  0  0  0  0  0  0  0  0
  137.6367  149.3820  140.0914 C   0  0  0  0  0  0  0  0  0  0  0  0
  138.8646  150.7169  141.4514 C   0  0  0  0  0  0  0  0  0  0  0  0
  136.4740  149.4736  140.9548 C   0  0  0  0  0  0  0  0  0  0  0  0
  137.8055  150.8841  142.4594 C   0  0  0  0  0  0  0  0  0  0  0  0
  136.6020  150.2105  142.1085 C   0  0  0  0  0  0  0  0  0  0  0  0
  137.8125  151.6357  143.7359 C   0  0  0  0  0  0  0  0  0  0  0  0
  136.7661  151.5746  144.5808 C   0  0  0  0  0  0  0  0  0  0  0  0
  136.3532  152.8038  145.2999 C   0  0  0  0  0  0  0  0  0  0  0  0
  1  2  1  0
  2  3  2  0
  2  4  1  0
  3  5  1  0
  4  6  2  0
  5  7  2  0
  6  7  1  0
  6  8  1  0
  8  9  1  0
  9 10  1  0
M  END
$$$$
