
     RDKit          3D

 10 11  0  0  0  0  0  0  0  0999 V2000
  138.9700  151.3143  142.5679 C   0  0  0  0  0  0  0  0  0  0  0  0
  138.6023  152.0885  143.2650 C   0  0  0  0  0  0  0  0  0  0  0  0
  137.6381  151.6908  144.0811 C   0  0  0  0  0  0  0  0  0  0  0  0
  137.2674  150.3484  144.1156 C   0  0  0  0  0  0  0  0  0  0  0  0
  136.8387  152.5474  145.0612 C   0  0  0  0  0  0  0  0  0  0  0  0
  138.5580  149.9211  142.4168 C   0  0  0  0  0  0  0  0  0  0  0  0
  135.6498  152.0714  145.5889 C   0  0  0  0  0  0  0  0  0  0  0  0
  136.3349  149.9695  145.1773 C   0  0  0  0  0  0  0  0  0  0  0  0
  137.9050  149.6300  143.2672 C   0  0  0  0  0  0  0  0  0  0  0  0
  135.7282  150.9315  145.8707 C   0  0  0  0  0  0  0  0  0  0  0  0
  1  2  1  0
  2  3  2  0
  3  4  1  0
  3  5  1  0
  1  6  2  0
  5  7  1  0
  4  8  1  0
  4  9  2  0
  6  9  1  0
  7 10  2  0
  8 10  1  0
M  END
$$$$
