
     RDKit          3D

 10 11  0  0  0  0  0  0  0  0999 V2000
  138.9700  151.3143  142.5679 C   0  0  0  0  0  0  0  0  0  0  0  0
  138.6023  152.0885  143.2650 C   0  0  0  0  0  0  0  0  0  0  0  0
  137.4866  151.7382  144.1969 C   0  0  0  0  0  0  0  0  0  0  0  0
  139.9970  151.3974  141.4279 C   0  0  0  0  0  0  0  0  0  0  0  0
  137.1554  150.3528  144.0258 C   0  0  0  0  0  0  0  0  0  0  0  0
  139.6392  150.7247  140.2349 C   0  0  0  0  0  0  0  0  0  0  0  0
  138.6044  149.7908  140.4201 C   0  0  0  0  0  0  0  0  0  0  0  0
  138.3703  149.9482  142.1263 C   0  0  0  0  0  0  0  0  0  0  0  0
  137.1068  152.7399  145.1593 C   0  0  0  0  0  0  0  0  0  0  0  0
  137.4844  149.3729  143.0419 C   0  0  0  0  0  0  0  0  0  0  0  0
  1  2  1  0
  2  3  2  0
  1  4  1  0
  3  5  1  0
  4  6  2  0
  6  7  1  0
  1  8  2  0
  7  8  1  0
  3  9  1  0
  5 10  1  0
  8 10  1  0
M  END
$$$$
