
     RDKit          3D

 11 12  0  0  0  0  0  0  0  0999 V2000
  139.3429  149.9930  140.5895 C   0  0  0  0  0  0  0  0  0  0  0  0
  138.9526  149.9228  139.3665 C   0  0  0  0  0  0  0  0  0  0  0  0
  138.6128  150.1151  141.6415 C   0  0  0  0  0  0  0  0  0  0  0  0
  137.1849  149.8640  141.8304 C   0  0  0  0  0  0  0  0  0  0  0  0
  136.5144  149.7572  140.5779 C   0  0  0  0  0  0  0  0  0  0  0  0
  139.1166  150.5253  143.0849 C   0  0  0  0  0  0  0  0  0  0  0  0
  138.2341  151.1490  143.8701 C   0  0  0  0  0  0  0  0  0  0  0  0
  136.5390  150.1395  143.0276 C   0  0  0  0  0  0  0  0  0  0  0  0
  137.1106  150.7894  144.0164 C   0  0  0  0  0  0  0  0  0  0  0  0
  136.1588  151.1375  145.4146 Cl  0  0  0  0  0  0  0  0  0  0  0  0
  137.4994  149.6622  139.0781 C   0  0  0  0  0  0  0  0  0  0  0  0
  1  2  2  0
  1  3  1  0
  3  4  1  0
  4  5  2  0
  3  6  1  0
  6  7  2  0
  4  8  1  0
  7  9  1  0
  8  9  2  0
  9 10  1  0
  2 11  1  0
  5 11  1  0
M  END
$$$$
