
     RDKit          3D

 11 12  0  0  0  0  0  0  0  0999 V2000
  139.5546  150.5076  140.4455 C   0  0  0  0  0  0  0  0  0  0  0  0
  139.2164  150.0146  139.3742 C   0  0  0  0  0  0  0  0  0  0  0  0
  138.8577  150.3073  141.5866 C   0  0  0  0  0  0  0  0  0  0  0  0
  139.2276  150.3508  142.8915 C   0  0  0  0  0  0  0  0  0  0  0  0
  138.5491  151.2697  143.6827 C   0  0  0  0  0  0  0  0  0  0  0  0
  137.8571  149.4543  139.3226 C   0  0  0  0  0  0  0  0  0  0  0  0
  137.3213  148.9483  138.1211 C   0  0  0  0  0  0  0  0  0  0  0  0
  137.3044  151.5388  143.2691 C   0  0  0  0  0  0  0  0  0  0  0  0
  136.8526  151.1590  142.0173 C   0  0  0  0  0  0  0  0  0  0  0  0
  137.5606  150.4198  141.2004 C   0  0  0  0  0  0  0  0  0  0  0  0
  136.9385  149.7709  140.2025 C   0  0  0  0  0  0  0  0  0  0  0  0
  1  2  2  0
  1  3  1  0
  3  4  1  0
  4  5  2  0
  2  6  1  0
  6  7  1  0
  5  8  1  0
  8  9  2  0
  3 10  2  0
  9 10  1  0
  6 11  2  0
 10 11  1  0
M  END
$$$$
