
     RDKit          3D

 11 12  0  0  0  0  0  0  0  0999 V2000
  139.5546  150.5076  140.4455 C   0  0  0  0  0  0  0  0  0  0  0  0
  139.2164  150.0146  139.3742 C   0  0  0  0  0  0  0  0  0  0  0  0
  138.8577  150.3073  141.5866 C   0  0  0  0  0  0  0  0  0  0  0  0
  137.9802  149.2985  139.2390 C   0  0  0  0  0  0  0  0  0  0  0  0
  137.2016  149.2056  140.2784 C   0  0  0  0  0  0  0  0  0  0  0  0
  135.7673  148.7987  140.2461 C   0  0  0  0  0  0  0  0  0  0  0  0
  139.4101  150.8793  142.9241 C   0  0  0  0  0  0  0  0  0  0  0  0
  138.3780  151.0479  144.0095 C   0  0  0  0  0  0  0  0  0  0  0  0
  137.1611  150.5687  143.6278 C   0  0  0  0  0  0  0  0  0  0  0  0
  137.6380  149.8709  141.5323 C   0  0  0  0  0  0  0  0  0  0  0  0
  136.6730  150.0041  142.5893 C   0  0  0  0  0  0  0  0  0  0  0  0
  1  2  2  0
  1  3  1  0
  2  4  1  0
  4  5  2  0
  5  6  1  0
  3  7  1  0
  7  8  2  0
  8  9  1  0
  3 10  2  0
  5 10  1  0
  9 11  2  0
 10 11  1  0
M  END
$$$$
