
     RDKit          3D

  9  9  0  0  0  0  0  0  0  0999 V2000
  139.3429  149.9930  140.5895 C   0  0  0  0  0  0  0  0  0  0  0  0
  138.9526  149.9228  139.3665 C   0  0  0  0  0  0  0  0  0  0  0  0
  138.6128  150.1151  141.6415 C   0  0  0  0  0  0  0  0  0  0  0  0
  137.1849  149.8640  141.8304 C   0  0  0  0  0  0  0  0  0  0  0  0
  136.5144  149.7572  140.5779 C   0  0  0  0  0  0  0  0  0  0  0  0
  135.0843  149.6706  140.4090 C   0  0  0  0  0  0  0  0  0  0  0  0
  137.3463  149.7256  139.2856 C   0  0  0  0  0  0  0  0  0  0  0  0
  139.2451  150.6099  143.1547 C   0  0  0  0  0  0  0  0  0  0  0  0
  138.3343  151.3035  143.8750 C   0  0  0  0  0  0  0  0  0  0  0  0
  1  2  2  0
  1  3  1  0
  3  4  1  0
  4  5  2  0
  5  6  1  0
  2  7  1  0
  5  7  1  0
  3  8  1  0
  8  9  1  0
M  END
$$$$
