
     RDKit          3D

 11 12  0  0  0  0  0  0  0  0999 V2000
  140.3024  150.2148  139.4796 Cl  0  0  0  0  0  0  0  0  0  0  0  0
  138.6763  150.1843  140.5310 C   0  0  0  0  0  0  0  0  0  0  0  0
  137.6367  149.3820  140.0914 C   0  0  0  0  0  0  0  0  0  0  0  0
  139.0296  150.8810  141.6190 C   0  0  0  0  0  0  0  0  0  0  0  0
  138.0436  150.8332  142.6890 C   0  0  0  0  0  0  0  0  0  0  0  0
  136.8351  150.0623  142.4002 C   0  0  0  0  0  0  0  0  0  0  0  0
  135.7953  150.2254  143.3982 C   0  0  0  0  0  0  0  0  0  0  0  0
  136.5086  149.5436  141.0500 C   0  0  0  0  0  0  0  0  0  0  0  0
  138.2990  151.3484  144.1431 C   0  0  0  0  0  0  0  0  0  0  0  0
  137.2712  151.8071  144.6739 C   0  0  0  0  0  0  0  0  0  0  0  0
  136.2247  151.1285  144.5431 C   0  0  0  0  0  0  0  0  0  0  0  0
  1  2  1  0
  2  3  2  0
  2  4  1  0
  4  5  2  0
  5  6  1  0
  6  7  1  0
  3  8  1  0
  6  8  2  0
  5  9  1  0
  9 10  1  0
  7 11  1  0
 10 11  1  0
M  END
$$$$
