
     RDKit          3D

 11 12  0  0  0  0  0  0  0  0999 V2000
  138.9700  151.3143  142.5679 C   0  0  0  0  0  0  0  0  0  0  0  0
  138.6023  152.0885  143.2650 C   0  0  0  0  0  0  0  0  0  0  0  0
  139.7634  151.4680  141.3543 C   0  0  0  0  0  0  0  0  0  0  0  0
  137.7631  151.7028  144.3624 C   0  0  0  0  0  0  0  0  0  0  0  0
  137.3919  150.2989  144.2724 C   0  0  0  0  0  0  0  0  0  0  0  0
  139.5884  150.5257  140.3066 C   0  0  0  0  0  0  0  0  0  0  0  0
  138.5527  149.8126  142.2894 C   0  0  0  0  0  0  0  0  0  0  0  0
  137.2166  152.7018  145.2824 C   0  0  0  0  0  0  0  0  0  0  0  0
  137.7106  149.2502  143.3871 C   0  0  0  0  0  0  0  0  0  0  0  0
  139.0157  149.4203  141.0261 O   0  0  0  0  0  0  0  0  0  0  0  0
  139.9667  150.5896  139.0981 C   0  0  0  0  0  0  0  0  0  0  0  0
  1  2  1  0
  1  3  1  0
  2  4  2  0
  4  5  1  0
  3  6  2  0
  1  7  2  0
  4  8  1  0
  5  9  2  0
  7  9  1  0
  6 10  1  0
  7 10  1  0
  6 11  1  0
M  END
$$$$
