
     RDKit          3D

 11 12  0  0  0  0  0  0  0  0999 V2000
  139.5345  150.8917  142.2314 C   0  0  0  0  0  0  0  0  0  0  0  0
  138.9995  151.9980  142.6394 C   0  0  0  0  0  0  0  0  0  0  0  0
  138.9541  149.6529  142.4257 C   0  0  0  0  0  0  0  0  0  0  0  0
  137.7537  151.8935  143.4337 C   0  0  0  0  0  0  0  0  0  0  0  0
  137.3038  153.0170  144.1125 C   0  0  0  0  0  0  0  0  0  0  0  0
  136.3818  152.7500  145.0844 C   0  0  0  0  0  0  0  0  0  0  0  0
  136.0521  151.4317  145.3456 C   0  0  0  0  0  0  0  0  0  0  0  0
  137.3610  150.5137  143.8398 C   0  0  0  0  0  0  0  0  0  0  0  0
  136.5304  150.3496  144.7476 C   0  0  0  0  0  0  0  0  0  0  0  0
  135.7524  153.9221  145.7139 C   0  0  0  0  0  0  0  0  0  0  0  0
  137.9177  149.4453  143.2670 N   0  0  0  0  0  0  0  0  0  0  0  0
  1  2  2  0
  1  3  1  0
  2  4  1  0
  4  5  1  0
  5  6  2  0
  6  7  1  0
  4  8  2  0
  7  9  2  0
  8  9  1  0
  6 10  1  0
  3 11  2  0
  8 11  1  0
M  END
$$$$
