
     RDKit          3D

 11 12  0  0  0  0  0  0  0  0999 V2000
  138.9700  151.3143  142.5679 C   0  0  0  0  0  0  0  0  0  0  0  0
  138.6023  152.0885  143.2650 C   0  0  0  0  0  0  0  0  0  0  0  0
  139.7634  151.4680  141.3543 C   0  0  0  0  0  0  0  0  0  0  0  0
  137.7631  151.7028  144.3624 C   0  0  0  0  0  0  0  0  0  0  0  0
  137.3919  150.2989  144.2724 C   0  0  0  0  0  0  0  0  0  0  0  0
  139.5884  150.5257  140.3066 C   0  0  0  0  0  0  0  0  0  0  0  0
  138.7539  149.4618  140.7022 C   0  0  0  0  0  0  0  0  0  0  0  0
  137.9428  149.4086  141.8985 C   0  0  0  0  0  0  0  0  0  0  0  0
  138.1458  150.1138  143.0448 C   0  0  0  0  0  0  0  0  0  0  0  0
  140.3759  150.6421  139.0120 C   0  0  0  0  0  0  0  0  0  0  0  0
  137.1307  152.3870  145.5761 C   0  0  0  0  0  0  0  0  0  0  0  0
  1  2  1  0
  1  3  1  0
  2  4  2  0
  4  5  1  0
  3  6  2  0
  6  7  1  0
  7  8  2  0
  1  9  2  0
  5  9  1  0
  8  9  1  0
  6 10  1  0
  4 11  1  0
M  END
$$$$
