
     RDKit          3D

  9  9  0  0  0  0  0  0  0  0999 V2000
  140.3024  150.2148  139.4796 Cl  0  0  0  0  0  0  0  0  0  0  0  0
  138.6763  150.1843  140.5310 C   0  0  0  0  0  0  0  0  0  0  0  0
  137.6367  149.3820  140.0914 C   0  0  0  0  0  0  0  0  0  0  0  0
  138.7708  150.9257  141.6508 C   0  0  0  0  0  0  0  0  0  0  0  0
  138.1273  150.9125  142.4396 C   0  0  0  0  0  0  0  0  0  0  0  0
  136.6299  149.5537  140.9779 C   0  0  0  0  0  0  0  0  0  0  0  0
  138.2522  151.5909  143.8342 C   0  0  0  0  0  0  0  0  0  0  0  0
  135.2959  149.1033  140.6983 C   0  0  0  0  0  0  0  0  0  0  0  0
  136.7767  150.2883  142.3151 C   0  0  0  0  0  0  0  0  0  0  0  0
  1  2  1  0
  2  3  1  0
  2  4  2  0
  4  5  1  0
  3  6  2  0
  5  7  1  0
  6  8  1  0
  5  9  2  0
  6  9  1  0
M  END
$$$$
