
     RDKit          3D

 11 12  0  0  0  0  0  0  0  0999 V2000
  139.5546  150.5076  140.4455 C   0  0  0  0  0  0  0  0  0  0  0  0
  139.2164  150.0146  139.3742 C   0  0  0  0  0  0  0  0  0  0  0  0
  138.8577  150.3073  141.5866 C   0  0  0  0  0  0  0  0  0  0  0  0
  137.9802  149.2985  139.2390 C   0  0  0  0  0  0  0  0  0  0  0  0
  139.3336  150.9318  142.8840 C   0  0  0  0  0  0  0  0  0  0  0  0
  138.3135  151.4959  143.6105 C   0  0  0  0  0  0  0  0  0  0  0  0
  137.0050  151.1284  143.2688 C   0  0  0  0  0  0  0  0  0  0  0  0
  136.8322  150.4048  142.1499 C   0  0  0  0  0  0  0  0  0  0  0  0
  137.3954  148.8851  138.1868 C   0  0  0  0  0  0  0  0  0  0  0  0
  137.5406  150.0040  141.4469 C   0  0  0  0  0  0  0  0  0  0  0  0
  137.1083  149.2686  140.3126 C   0  0  0  0  0  0  0  0  0  0  0  0
  1  2  2  0
  1  3  1  0
  2  4  1  0
  3  5  1  0
  5  6  2  0
  6  7  1  0
  7  8  2  0
  4  9  2  0
  3 10  2  0
  8 10  1  0
  4 11  1  0
 10 11  1  0
M  END
$$$$
