
     RDKit          3D

 11 12  0  0  0  0  0  0  0  0999 V2000
  138.7091  151.1474  142.6274 C   0  0  0  0  0  0  0  0  0  0  0  0
  138.5250  151.9378  143.5111 C   0  0  0  0  0  0  0  0  0  0  0  0
  137.3808  151.6590  144.3960 C   0  0  0  0  0  0  0  0  0  0  0  0
  139.6671  150.9842  141.6902 C   0  0  0  0  0  0  0  0  0  0  0  0
  136.7223  150.4781  143.9637 C   0  0  0  0  0  0  0  0  0  0  0  0
  137.7855  150.1127  142.3490 C   0  0  0  0  0  0  0  0  0  0  0  0
  138.1041  149.3710  141.0881 C   0  0  0  0  0  0  0  0  0  0  0  0
  135.5649  150.2222  145.0422 C   0  0  0  0  0  0  0  0  0  0  0  0
  138.9604  150.0716  140.3209 C   0  0  0  0  0  0  0  0  0  0  0  0
  139.9312  150.7738  140.5951 C   0  0  0  0  0  0  0  0  0  0  0  0
  136.7725  149.7744  143.1641 N   0  0  0  0  0  0  0  0  0  0  0  0
  1  2  1  0
  2  3  2  0
  1  4  1  0
  3  5  1  0
  1  6  2  0
  6  7  1  0
  5  8  1  0
  7  9  2  0
  4 10  2  0
  9 10  1  0
  5 11  2  0
  6 11  1  0
M  END
$$$$
