
     RDKit          3D

  9  9  0  0  0  0  0  0  0  0999 V2000
  139.3429  149.9930  140.5895 C   0  0  0  0  0  0  0  0  0  0  0  0
  138.9526  149.9228  139.3665 C   0  0  0  0  0  0  0  0  0  0  0  0
  138.6128  150.1151  141.6415 C   0  0  0  0  0  0  0  0  0  0  0  0
  137.5731  149.8751  139.0603 C   0  0  0  0  0  0  0  0  0  0  0  0
  137.0927  149.4986  137.8152 O   0  0  0  0  0  0  0  0  0  0  0  0
  136.6873  149.8542  140.1889 C   0  0  0  0  0  0  0  0  0  0  0  0
  135.2525  149.8795  140.0769 C   0  0  0  0  0  0  0  0  0  0  0  0
  137.3864  150.1212  141.7046 C   0  0  0  0  0  0  0  0  0  0  0  0
  139.2229  150.4410  143.2818 Cl  0  0  0  0  0  0  0  0  0  0  0  0
  1  2  2  0
  1  3  1  0
  2  4  1  0
  4  5  1  0
  4  6  2  0
  6  7  1  0
  3  8  2  0
  6  8  1  0
  3  9  1  0
M  END
$$$$
