
     RDKit          3D

 11 11  0  0  0  0  0  0  0  0999 V2000
  138.9700  151.3143  142.5679 C   0  0  0  0  0  0  0  0  0  0  0  0
  138.6023  152.0885  143.2650 C   0  0  0  0  0  0  0  0  0  0  0  0
  137.6696  151.8114  144.0578 C   0  0  0  0  0  0  0  0  0  0  0  0
  136.5753  152.7057  144.5965 C   0  0  0  0  0  0  0  0  0  0  0  0
  135.5868  152.4509  145.5251 C   0  0  0  0  0  0  0  0  0  0  0  0
  135.6617  151.0048  145.8899 C   0  0  0  0  0  0  0  0  0  0  0  0
  139.9422  151.4878  141.3764 C   0  0  0  0  0  0  0  0  0  0  0  0
  137.2863  150.4066  144.6506 C   0  0  0  0  0  0  0  0  0  0  0  0
  138.3156  149.5379  144.1403 O   0  0  0  0  0  0  0  0  0  0  0  0
  139.6749  150.7000  140.2287 C   0  0  0  0  0  0  0  0  0  0  0  0
  136.4390  149.9921  145.5039 C   0  0  0  0  0  0  0  0  0  0  0  0
  1  2  2  3
  2  3  1  0
  3  4  1  0
  4  5  2  0
  5  6  1  0
  1  7  1  0
  3  8  2  0
  8  9  1  0
  7 10  1  0
  6 11  2  0
  8 11  1  0
M  END
$$$$
