
     RDKit          3D

 11 12  0  0  0  0  0  0  0  0999 V2000
  140.3024  150.2148  139.4796 Cl  0  0  0  0  0  0  0  0  0  0  0  0
  138.6763  150.1843  140.5310 C   0  0  0  0  0  0  0  0  0  0  0  0
  137.6367  149.3820  140.0914 C   0  0  0  0  0  0  0  0  0  0  0  0
  137.5434  148.9630  138.7426 C   0  0  0  0  0  0  0  0  0  0  0  0
  138.4840  150.4347  141.7160 C   0  0  0  0  0  0  0  0  0  0  0  0
  136.5057  149.4969  140.9388 C   0  0  0  0  0  0  0  0  0  0  0  0
  135.2192  149.1102  140.4056 C   0  0  0  0  0  0  0  0  0  0  0  0
  136.8857  150.1640  142.0311 C   0  0  0  0  0  0  0  0  0  0  0  0
  138.4900  151.1193  142.9393 C   0  0  0  0  0  0  0  0  0  0  0  0
  137.8187  151.1595  144.0311 C   0  0  0  0  0  0  0  0  0  0  0  0
  136.7366  150.5729  143.3662 N   0  0  0  0  0  0  0  0  0  0  0  0
  1  2  1  0
  2  3  2  0
  3  4  1  0
  2  5  1  0
  3  6  1  0
  6  7  1  0
  5  8  1  0
  6  8  2  0
  5  9  1  0
  9 10  2  0
  8 11  1  0
 10 11  1  0
M  END
$$$$
