
     RDKit          3D

 11 11  0  0  0  0  0  0  0  0999 V2000
  138.7250  151.5761  143.3186 C   0  0  0  0  0  0  0  0  0  0  0  0
  137.9190  152.3260  143.7534 C   0  0  0  0  0  0  0  0  0  0  0  0
  136.7518  151.8065  144.4377 C   0  0  0  0  0  0  0  0  0  0  0  0
  138.5742  150.7615  142.3609 C   0  0  0  0  0  0  0  0  0  0  0  0
  136.5038  150.5082  144.1692 C   0  0  0  0  0  0  0  0  0  0  0  0
  135.9552  152.7522  145.3590 C   0  0  0  0  0  0  0  0  0  0  0  0
  137.4366  149.8142  142.6397 C   0  0  0  0  0  0  0  0  0  0  0  0
  136.6348  149.6524  143.3535 C   0  0  0  0  0  0  0  0  0  0  0  0
  136.2024  154.0722  145.4507 C   0  0  0  0  0  0  0  0  0  0  0  0
  135.1955  152.0130  146.0090 C   0  0  0  0  0  0  0  0  0  0  0  0
  139.4384  150.8055  141.0956 C   0  0  0  0  0  0  0  0  0  0  0  0
  1  2  1  0
  2  3  2  0
  1  4  2  0
  3  5  1  0
  3  6  1  0
  4  7  1  0
  5  8  2  0
  7  8  2  0
  6  9  1  0
  6 10  2  0
  4 11  1  0
M  END
$$$$
