
     RDKit          3D

 11 11  0  0  0  0  0  0  0  0999 V2000
  139.2620  151.0920  142.4042 C   0  0  0  0  0  0  0  0  0  0  0  0
  138.8619  152.1309  142.9034 C   0  0  0  0  0  0  0  0  0  0  0  0
  137.7834  151.8925  143.8932 C   0  0  0  0  0  0  0  0  0  0  0  0
  137.3598  150.5409  144.0625 C   0  0  0  0  0  0  0  0  0  0  0  0
  136.3243  150.4647  145.1225 C   0  0  0  0  0  0  0  0  0  0  0  0
  139.2661  149.7548  142.8054 C   0  0  0  0  0  0  0  0  0  0  0  0
  137.9618  149.6107  143.5791 C   0  0  0  0  0  0  0  0  0  0  0  0
  135.4250  151.3022  145.3496 C   0  0  0  0  0  0  0  0  0  0  0  0
  140.2856  151.3075  141.2734 C   0  0  0  0  0  0  0  0  0  0  0  0
  140.0463  150.6708  140.1192 C   0  0  0  0  0  0  0  0  0  0  0  0
  135.0193  152.2348  144.5170 C   0  0  0  0  0  0  0  0  0  0  0  0
  1  2  1  0
  2  3  2  0
  3  4  1  0
  4  5  2  3
  1  6  1  0
  4  7  1  0
  6  7  2  0
  5  8  1  0
  1  9  2  3
  9 10  1  0
  8 11  1  0
M  END
$$$$
