
     RDKit          3D

  9  9  0  0  0  0  0  0  0  0999 V2000
  139.3427  149.9935  140.5880 C   0  0  0  0  0  0  0  0  0  0  0  0
  138.9528  149.9224  139.3656 C   0  0  0  0  0  0  0  0  0  0  0  0
  138.6122  150.1102  141.6416 C   0  0  0  0  0  0  0  0  0  0  0  0
  137.1910  149.8704  141.8331 C   0  0  0  0  0  0  0  0  0  0  0  0
  136.5134  149.7658  140.5812 C   0  0  0  0  0  0  0  0  0  0  0  0
  139.1788  150.4012  143.1353 C   0  0  0  0  0  0  0  0  0  0  0  0
  135.0842  149.7147  140.3850 C   0  0  0  0  0  0  0  0  0  0  0  0
  137.4758  149.7072  139.1240 C   0  0  0  0  0  0  0  0  0  0  0  0
  138.3766  151.2372  143.8708 C   0  0  0  0  0  0  0  0  0  0  0  0
  1  2  2  0
  1  3  1  0
  3  4  1  0
  4  5  2  0
  3  6  1  0
  5  7  1  0
  2  8  1  0
  5  8  1  0
  6  9  1  0
M  END
$$$$
