
     RDKit          3D

  9  9  0  0  0  0  0  0  0  0999 V2000
  139.3427  149.9935  140.5880 C   0  0  0  0  0  0  0  0  0  0  0  0
  138.9528  149.9224  139.3656 C   0  0  0  0  0  0  0  0  0  0  0  0
  138.6122  150.1102  141.6416 C   0  0  0  0  0  0  0  0  0  0  0  0
  137.1910  149.8704  141.8331 C   0  0  0  0  0  0  0  0  0  0  0  0
  136.5134  149.7658  140.5812 C   0  0  0  0  0  0  0  0  0  0  0  0
  139.2015  150.3839  143.0731 C   0  0  0  0  0  0  0  0  0  0  0  0
  137.1990  149.7173  139.2285 C   0  0  0  0  0  0  0  0  0  0  0  0
  138.2477  150.9007  144.1254 C   0  0  0  0  0  0  0  0  0  0  0  0
  137.8673  152.2495  144.0456 C   0  0  0  0  0  0  0  0  0  0  0  0
  1  2  2  0
  1  3  1  0
  3  4  1  0
  4  5  2  0
  3  6  1  0
  2  7  1  0
  5  7  1  0
  6  8  1  0
  8  9  1  0
M  END
$$$$
