
     RDKit          3D

 11 12  0  0  0  0  0  0  0  0999 V2000
  138.9705  151.3124  142.5681 C   0  0  0  0  0  0  0  0  0  0  0  0
  138.6057  152.0894  143.2653 C   0  0  0  0  0  0  0  0  0  0  0  0
  137.6600  151.8349  144.0467 C   0  0  0  0  0  0  0  0  0  0  0  0
  136.5812  152.7548  144.5687 C   0  0  0  0  0  0  0  0  0  0  0  0
  135.5825  152.5183  145.5069 C   0  0  0  0  0  0  0  0  0  0  0  0
  135.6125  151.0466  145.8019 C   0  0  0  0  0  0  0  0  0  0  0  0
  137.2007  150.4699  144.5285 C   0  0  0  0  0  0  0  0  0  0  0  0
  134.6247  150.6979  146.8381 C   0  0  0  0  0  0  0  0  0  0  0  0
  138.7608  149.8797  142.6703 C   0  0  0  0  0  0  0  0  0  0  0  0
  137.8585  149.5472  143.7338 C   0  0  0  0  0  0  0  0  0  0  0  0
  136.3195  150.0984  145.4529 N   0  0  0  0  0  0  0  0  0  0  0  0
  1  2  2  0
  2  3  1  0
  3  4  1  0
  4  5  2  0
  5  6  1  0
  3  7  2  0
  6  8  1  0
  1  9  1  0
  7 10  1  0
  9 10  2  0
  6 11  2  0
  7 11  1  0
M  END
$$$$
