
     RDKit          3D

 11 12  0  0  0  0  0  0  0  0999 V2000
  139.2621  151.0929  142.4047 C   0  0  0  0  0  0  0  0  0  0  0  0
  138.8616  152.1308  142.9039 C   0  0  0  0  0  0  0  0  0  0  0  0
  137.7831  151.8921  143.8937 C   0  0  0  0  0  0  0  0  0  0  0  0
  138.6293  149.7793  142.4951 C   0  0  0  0  0  0  0  0  0  0  0  0
  137.6232  149.6974  143.4793 C   0  0  0  0  0  0  0  0  0  0  0  0
  137.3768  153.1151  144.6927 C   0  0  0  0  0  0  0  0  0  0  0  0
  136.1205  153.0622  145.3870 C   0  0  0  0  0  0  0  0  0  0  0  0
  135.4238  151.9283  145.3161 C   0  0  0  0  0  0  0  0  0  0  0  0
  137.1664  150.6427  144.1624 C   0  0  0  0  0  0  0  0  0  0  0  0
  134.3091  151.7928  146.1641 C   0  0  0  0  0  0  0  0  0  0  0  0
  136.2004  150.5923  145.0999 C   0  0  0  0  0  0  0  0  0  0  0  0
  1  2  1  0
  2  3  2  0
  1  4  2  0
  4  5  1  0
  3  6  1  0
  6  7  2  0
  7  8  1  0
  3  9  1  0
  5  9  2  0
  8 10  1  0
  8 11  1  0
  9 11  1  0
M  END
$$$$
