
     RDKit          3D

 11 11  0  0  0  0  0  0  0  0999 V2000
  139.3427  149.9935  140.5880 C   0  0  0  0  0  0  0  0  0  0  0  0
  138.9528  149.9224  139.3656 C   0  0  0  0  0  0  0  0  0  0  0  0
  138.6122  150.1102  141.6416 C   0  0  0  0  0  0  0  0  0  0  0  0
  137.1910  149.8704  141.8331 C   0  0  0  0  0  0  0  0  0  0  0  0
  136.5134  149.7658  140.5812 C   0  0  0  0  0  0  0  0  0  0  0  0
  135.0824  149.6836  140.4151 C   0  0  0  0  0  0  0  0  0  0  0  0
  139.7085  149.8258  138.1858 C   0  0  0  0  0  0  0  0  0  0  0  0
  137.3961  149.7257  139.2053 C   0  0  0  0  0  0  0  0  0  0  0  0
  139.0562  150.2181  143.0780 C   0  0  0  0  0  0  0  0  0  0  0  0
  138.1866  150.9501  144.1033 C   0  0  0  0  0  0  0  0  0  0  0  0
  137.2434  151.6870  143.7663 C   0  0  0  0  0  0  0  0  0  0  0  0
  1  2  2  0
  1  3  1  0
  3  4  1  0
  4  5  2  0
  5  6  1  0
  2  7  1  0
  2  8  1  0
  5  8  1  0
  3  9  1  0
  9 10  1  0
 10 11  1  0
M  END
$$$$
