
     RDKit          3D

 11 11  0  0  0  0  0  0  0  0999 V2000
  139.0004  149.7631  140.3649 C   0  0  0  0  0  0  0  0  0  0  0  0
  139.7623  150.8543  140.7370 C   0  0  0  0  0  0  0  0  0  0  0  0
  139.2605  149.1459  139.1745 C   0  0  0  0  0  0  0  0  0  0  0  0
  139.5454  151.5142  142.0095 C   0  0  0  0  0  0  0  0  0  0  0  0
  138.4600  150.9915  142.6960 C   0  0  0  0  0  0  0  0  0  0  0  0
  137.8908  149.5533  141.2205 C   0  0  0  0  0  0  0  0  0  0  0  0
  138.2361  151.6729  144.1109 C   0  0  0  0  0  0  0  0  0  0  0  0
  136.9034  151.6291  144.5714 C   0  0  0  0  0  0  0  0  0  0  0  0
  136.5732  152.3241  145.7893 C   0  0  0  0  0  0  0  0  0  0  0  0
  135.3709  153.0364  145.6817 C   0  0  0  0  0  0  0  0  0  0  0  0
  137.5546  150.0673  142.3130 N   0  0  0  0  0  0  0  0  0  0  0  0
  1  2  2  0
  1  3  1  0
  2  4  1  0
  4  5  2  0
  1  6  1  0
  5  7  1  0
  7  8  2  3
  8  9  1  0
  9 10  1  0
  5 11  1  0
  6 11  2  0
M  END
$$$$
