
     RDKit          3D

 11 11  0  0  0  0  0  0  0  0999 V2000
  138.7090  151.1469  142.6269 C   0  0  0  0  0  0  0  0  0  0  0  0
  138.5260  151.9370  143.5114 C   0  0  0  0  0  0  0  0  0  0  0  0
  137.4749  151.6734  144.4638 C   0  0  0  0  0  0  0  0  0  0  0  0
  138.0103  149.8673  142.4738 C   0  0  0  0  0  0  0  0  0  0  0  0
  136.7212  150.4817  144.2964 C   0  0  0  0  0  0  0  0  0  0  0  0
  137.0162  149.5952  143.3274 C   0  0  0  0  0  0  0  0  0  0  0  0
  137.1315  152.6397  145.4953 C   0  0  0  0  0  0  0  0  0  0  0  0
  139.7947  151.3208  141.5586 C   0  0  0  0  0  0  0  0  0  0  0  0
  139.8329  150.4652  140.4368 C   0  0  0  0  0  0  0  0  0  0  0  0
  136.0177  153.1951  145.4091 C   0  0  0  0  0  0  0  0  0  0  0  0
  140.1032  151.0084  139.1339 C   0  0  0  0  0  0  0  0  0  0  0  0
  1  2  2  0
  2  3  1  0
  1  4  1  0
  3  5  2  0
  4  6  2  0
  5  6  1  0
  3  7  1  0
  1  8  1  0
  8  9  1  0
  7 10  1  0
  9 11  1  0
M  END
$$$$
