
     RDKit          3D

 11 11  0  0  0  0  0  0  0  0999 V2000
  140.3036  150.2148  139.4783 Cl  0  0  0  0  0  0  0  0  0  0  0  0
  138.6783  150.1860  140.5319 C   0  0  0  0  0  0  0  0  0  0  0  0
  137.6385  149.3831  140.0945 C   0  0  0  0  0  0  0  0  0  0  0  0
  138.7505  150.9487  141.6715 C   0  0  0  0  0  0  0  0  0  0  0  0
  137.7560  150.8742  142.6261 C   0  0  0  0  0  0  0  0  0  0  0  0
  136.5042  149.3300  140.9884 C   0  0  0  0  0  0  0  0  0  0  0  0
  136.5793  150.1099  142.1951 C   0  0  0  0  0  0  0  0  0  0  0  0
  137.6813  151.6607  143.8609 C   0  0  0  0  0  0  0  0  0  0  0  0
  136.5742  151.5282  144.6692 C   0  0  0  0  0  0  0  0  0  0  0  0
  136.2614  152.6958  145.5495 C   0  0  0  0  0  0  0  0  0  0  0  0
  135.0620  152.7090  146.3062 C   0  0  0  0  0  0  0  0  0  0  0  0
  1  2  1  0
  2  3  2  0
  2  4  1  0
  4  5  2  0
  3  6  1  0
  5  7  1  0
  6  7  2  0
  5  8  1  0
  8  9  1  0
  9 10  1  0
 10 11  1  0
M  END
$$$$
