
     RDKit          3D

 11 11  0  0  0  0  0  0  0  0999 V2000
  139.3427  149.9935  140.5880 C   0  0  0  0  0  0  0  0  0  0  0  0
  138.9528  149.9224  139.3656 C   0  0  0  0  0  0  0  0  0  0  0  0
  138.6122  150.1102  141.6416 C   0  0  0  0  0  0  0  0  0  0  0  0
  137.1910  149.8704  141.8331 C   0  0  0  0  0  0  0  0  0  0  0  0
  136.4707  150.2696  142.9684 C   0  0  0  0  0  0  0  0  0  0  0  0
  135.1320  150.3575  143.2741 C   0  0  0  0  0  0  0  0  0  0  0  0
  134.7294  151.0382  144.5260 C   0  0  0  0  0  0  0  0  0  0  0  0
  137.4101  150.6844  144.0875 C   0  0  0  0  0  0  0  0  0  0  0  0
  137.1142  150.9614  145.3197 C   0  0  0  0  0  0  0  0  0  0  0  0
  135.6877  151.2109  145.6061 C   0  0  0  0  0  0  0  0  0  0  0  0
  139.1175  150.8790  143.7940 Cl  0  0  0  0  0  0  0  0  0  0  0  0
  1  2  2  0
  1  3  1  0
  3  4  1  0
  4  5  2  3
  5  6  1  0
  6  7  2  0
  5  8  1  0
  8  9  2  0
  7 10  1  0
  9 10  1  0
  8 11  1  0
M  END
$$$$
