
     RDKit          3D

 11 11  0  0  0  0  0  0  0  0999 V2000
  139.3427  149.9935  140.5880 C   0  0  0  0  0  0  0  0  0  0  0  0
  138.9528  149.9224  139.3656 C   0  0  0  0  0  0  0  0  0  0  0  0
  138.6122  150.1102  141.6416 C   0  0  0  0  0  0  0  0  0  0  0  0
  137.5740  149.8706  139.0588 C   0  0  0  0  0  0  0  0  0  0  0  0
  137.0940  149.4943  137.8146 C   0  0  0  0  0  0  0  0  0  0  0  0
  136.7645  149.9138  140.3205 C   0  0  0  0  0  0  0  0  0  0  0  0
  139.1419  150.2992  143.0591 C   0  0  0  0  0  0  0  0  0  0  0  0
  135.2763  150.0038  140.1434 C   0  0  0  0  0  0  0  0  0  0  0  0
  138.2067  150.7700  144.0868 C   0  0  0  0  0  0  0  0  0  0  0  0
  137.2463  150.1516  141.5986 C   0  0  0  0  0  0  0  0  0  0  0  0
  137.3247  151.6755  144.0451 C   0  0  0  0  0  0  0  0  0  0  0  0
  1  2  2  0
  1  3  1  0
  2  4  1  0
  4  5  1  0
  4  6  2  0
  3  7  1  0
  6  8  1  0
  7  9  2  3
  3 10  2  0
  6 10  1  0
  9 11  1  0
M  END
$$$$
