
     RDKit          3D

 12 13  0  0  0  0  0  0  0  0999 V2000
  140.3036  150.2148  139.4783 Cl  0  0  0  0  0  0  0  0  0  0  0  0
  138.6783  150.1860  140.5319 C   0  0  0  0  0  0  0  0  0  0  0  0
  137.6385  149.3831  140.0945 C   0  0  0  0  0  0  0  0  0  0  0  0
  138.8668  150.7183  141.4516 C   0  0  0  0  0  0  0  0  0  0  0  0
  138.3194  150.9395  142.2987 C   0  0  0  0  0  0  0  0  0  0  0  0
  136.9007  150.1342  142.2766 C   0  0  0  0  0  0  0  0  0  0  0  0
  138.2473  151.6023  143.8292 C   0  0  0  0  0  0  0  0  0  0  0  0
  135.9409  150.4084  143.2702 C   0  0  0  0  0  0  0  0  0  0  0  0
  136.5681  149.5590  140.9975 C   0  0  0  0  0  0  0  0  0  0  0  0
  136.3928  151.1078  144.4199 C   0  0  0  0  0  0  0  0  0  0  0  0
  135.2756  151.2064  145.5399 C   0  0  0  0  0  0  0  0  0  0  0  0
  137.4003  151.5989  144.6788 C   0  0  0  0  0  0  0  0  0  0  0  0
  1  2  1  0
  2  3  2  0
  2  4  1  0
  4  5  2  0
  5  6  1  0
  5  7  1  0
  6  8  1  0
  3  9  1  0
  6  9  2  0
  8 10  2  0
 10 11  1  0
  7 12  1  0
 10 12  1  0
M  END
$$$$
