
     RDKit          3D

 12 13  0  0  0  0  0  0  0  0999 V2000
  139.3427  149.9935  140.5880 C   0  0  0  0  0  0  0  0  0  0  0  0
  138.9528  149.9224  139.3656 C   0  0  0  0  0  0  0  0  0  0  0  0
  138.6122  150.1102  141.6416 C   0  0  0  0  0  0  0  0  0  0  0  0
  137.5740  149.8706  139.0588 C   0  0  0  0  0  0  0  0  0  0  0  0
  137.1494  149.9724  141.5205 C   0  0  0  0  0  0  0  0  0  0  0  0
  136.2695  150.1338  142.6387 C   0  0  0  0  0  0  0  0  0  0  0  0
  136.6228  149.8862  140.0939 C   0  0  0  0  0  0  0  0  0  0  0  0
  136.8108  151.0574  143.5764 C   0  0  0  0  0  0  0  0  0  0  0  0
  138.1115  151.3300  143.7236 C   0  0  0  0  0  0  0  0  0  0  0  0
  138.8814  150.5500  142.9590 C   0  0  0  0  0  0  0  0  0  0  0  0
  136.3120  151.5362  144.8707 C   0  0  0  0  0  0  0  0  0  0  0  0
  135.3646  152.6133  144.9507 C   0  0  0  0  0  0  0  0  0  0  0  0
  1  2  2  0
  1  3  1  0
  2  4  1  0
  3  5  2  0
  5  6  1  0
  4  7  2  0
  5  7  1  0
  6  8  1  0
  8  9  1  0
  3 10  1  0
  9 10  2  0
  8 11  1  0
 11 12  1  0
M  END
$$$$
