
     RDKit          3D

 12 13  0  0  0  0  0  0  0  0999 V2000
  138.9705  151.3124  142.5681 C   0  0  0  0  0  0  0  0  0  0  0  0
  138.6057  152.0894  143.2653 C   0  0  0  0  0  0  0  0  0  0  0  0
  137.5209  151.8314  144.2019 C   0  0  0  0  0  0  0  0  0  0  0  0
  136.5811  152.7823  144.6505 C   0  0  0  0  0  0  0  0  0  0  0  0
  135.5281  152.5971  145.5921 C   0  0  0  0  0  0  0  0  0  0  0  0
  135.4711  151.1567  145.9206 C   0  0  0  0  0  0  0  0  0  0  0  0
  137.0945  150.5142  144.7085 C   0  0  0  0  0  0  0  0  0  0  0  0
  138.1042  149.5024  144.2048 C   0  0  0  0  0  0  0  0  0  0  0  0
  136.2347  150.1254  145.6404 C   0  0  0  0  0  0  0  0  0  0  0  0
  139.9216  151.5504  141.4931 C   0  0  0  0  0  0  0  0  0  0  0  0
  139.8805  150.6082  140.3371 C   0  0  0  0  0  0  0  0  0  0  0  0
  138.8137  149.7809  142.9495 C   0  0  0  0  0  0  0  0  0  0  0  0
  1  2  2  0
  2  3  1  0
  3  4  1  0
  4  5  2  0
  5  6  1  0
  3  7  2  0
  7  8  1  0
  6  9  2  0
  7  9  1  0
  1 10  1  0
 10 11  1  0
  1 12  1  0
  8 12  2  0
M  END
$$$$
