
     RDKit          3D

 12 13  0  0  0  0  0  0  0  0999 V2000
  138.9705  151.3124  142.5681 C   0  0  0  0  0  0  0  0  0  0  0  0
  138.6057  152.0894  143.2653 C   0  0  0  0  0  0  0  0  0  0  0  0
  137.6600  151.8349  144.0467 C   0  0  0  0  0  0  0  0  0  0  0  0
  139.9939  151.3511  141.4314 C   0  0  0  0  0  0  0  0  0  0  0  0
  137.4795  150.6675  144.8972 C   0  0  0  0  0  0  0  0  0  0  0  0
  139.6568  150.7243  140.2644 C   0  0  0  0  0  0  0  0  0  0  0  0
  138.5004  150.0428  140.1974 C   0  0  0  0  0  0  0  0  0  0  0  0
  137.5686  149.8234  141.3807 C   0  0  0  0  0  0  0  0  0  0  0  0
  137.9178  150.2584  142.2808 C   0  0  0  0  0  0  0  0  0  0  0  0
  138.0583  149.4208  138.9363 C   0  0  0  0  0  0  0  0  0  0  0  0
  137.3123  149.6762  143.7525 N   0  0  0  0  0  0  0  0  0  0  0  0
  137.9970  148.3565  138.5044 C   0  0  0  0  0  0  0  0  0  0  0  0
  1  2  2  0
  2  3  1  0
  1  4  1  0
  3  5  2  0
  4  6  2  0
  6  7  1  0
  7  8  1  0
  1  9  1  0
  8  9  2  0
  7 10  2  3
  5 11  1  0
  9 11  1  0
 10 12  1  0
M  END
$$$$
