
     RDKit          3D

 12 12  0  0  0  0  0  0  0  0999 V2000
  138.7090  151.1469  142.6269 C   0  0  0  0  0  0  0  0  0  0  0  0
  138.5260  151.9370  143.5114 C   0  0  0  0  0  0  0  0  0  0  0  0
  137.3914  151.8088  144.0737 C   0  0  0  0  0  0  0  0  0  0  0  0
  138.6945  150.6819  141.4251 C   0  0  0  0  0  0  0  0  0  0  0  0
  136.4561  150.8624  143.7041 C   0  0  0  0  0  0  0  0  0  0  0  0
  136.9596  152.6921  145.2656 C   0  0  0  0  0  0  0  0  0  0  0  0
  138.9201  150.0702  140.0443 C   0  0  0  0  0  0  0  0  0  0  0  0
  137.8842  149.5581  139.5378 C   0  0  0  0  0  0  0  0  0  0  0  0
  140.0729  150.3071  139.9306 C   0  0  0  0  0  0  0  0  0  0  0  0
  138.0253  149.2627  138.5013 C   0  0  0  0  0  0  0  0  0  0  0  0
  140.4787  149.8385  138.5333 C   0  0  0  0  0  0  0  0  0  0  0  0
  139.2409  149.1659  137.6733 C   0  0  0  0  0  0  0  0  0  0  0  0
  1  2  1  0
  2  3  2  3
  1  4  3  0
  3  5  1  0
  3  6  1  0
  4  7  1  0
  7  8  2  0
  7  9  1  0
  8 10  1  0
  9 11  2  0
 10 12  2  0
 11 12  1  0
M  END
$$$$
