
     RDKit          3D

  9  8  0  0  0  0  0  0  0  0999 V2000
  139.2621  151.0929  142.4047 C   0  0  0  0  0  0  0  0  0  0  0  0
  138.8616  152.1308  142.9039 C   0  0  0  0  0  0  0  0  0  0  0  0
  137.7831  151.8921  143.8937 C   0  0  0  0  0  0  0  0  0  0  0  0
  140.0672  150.9660  141.1527 C   0  0  0  0  0  0  0  0  0  0  0  0
  139.9022  149.9109  140.2215 C   0  0  0  0  0  0  0  0  0  0  0  0
  137.4077  152.4046  144.9135 C   0  0  0  0  0  0  0  0  0  0  0  0
  136.0667  152.4466  145.4646 C   0  0  0  0  0  0  0  0  0  0  0  0
  139.6491  150.3944  138.8249 C   0  0  0  0  0  0  0  0  0  0  0  0
  135.2240  153.2825  145.1355 C   0  0  0  0  0  0  0  0  0  0  0  0
  1  2  1  0
  2  3  2  3
  1  4  1  0
  4  5  1  0
  3  6  1  0
  6  7  1  0
  5  8  1  0
  7  9  1  0
M  END
$$$$
