
     RDKit          3D

 12 13  0  0  0  0  0  0  0  0999 V2000
  140.3036  150.2148  139.4783 Cl  0  0  0  0  0  0  0  0  0  0  0  0
  138.6783  150.1860  140.5319 C   0  0  0  0  0  0  0  0  0  0  0  0
  137.6385  149.3831  140.0945 C   0  0  0  0  0  0  0  0  0  0  0  0
  138.7505  150.9487  141.6715 C   0  0  0  0  0  0  0  0  0  0  0  0
  136.4550  149.4179  140.9244 C   0  0  0  0  0  0  0  0  0  0  0  0
  136.4022  150.2880  142.0367 C   0  0  0  0  0  0  0  0  0  0  0  0
  135.2043  150.3942  142.8889 C   0  0  0  0  0  0  0  0  0  0  0  0
  135.4985  151.1747  144.1387 C   0  0  0  0  0  0  0  0  0  0  0  0
  137.5869  150.9826  142.5058 C   0  0  0  0  0  0  0  0  0  0  0  0
  137.6010  151.7157  143.7894 C   0  0  0  0  0  0  0  0  0  0  0  0
  136.4189  151.6953  144.5548 C   0  0  0  0  0  0  0  0  0  0  0  0
  136.3515  152.5131  146.0281 Cl  0  0  0  0  0  0  0  0  0  0  0  0
  1  2  1  0
  2  3  2  0
  2  4  1  0
  3  5  1  0
  5  6  2  0
  6  7  1  0
  7  8  2  0
  4  9  2  0
  6  9  1  0
  9 10  1  0
  8 11  1  0
 10 11  2  0
 11 12  1  0
M  END
$$$$
