
     RDKit          3D

 12 13  0  0  0  0  0  0  0  0999 V2000
  139.0004  149.7631  140.3649 C   0  0  0  0  0  0  0  0  0  0  0  0
  138.7142  149.5451  139.1249 C   0  0  0  0  0  0  0  0  0  0  0  0
  138.1856  150.1072  141.2839 C   0  0  0  0  0  0  0  0  0  0  0  0
  137.3213  149.5926  138.6821 C   0  0  0  0  0  0  0  0  0  0  0  0
  136.3776  149.8122  139.7323 C   0  0  0  0  0  0  0  0  0  0  0  0
  138.6498  150.4524  142.6761 C   0  0  0  0  0  0  0  0  0  0  0  0
  137.8095  150.9703  143.6446 C   0  0  0  0  0  0  0  0  0  0  0  0
  136.5355  151.0899  143.2204 C   0  0  0  0  0  0  0  0  0  0  0  0
  135.6032  151.5335  144.2586 C   0  0  0  0  0  0  0  0  0  0  0  0
  136.7857  150.1764  141.0427 C   0  0  0  0  0  0  0  0  0  0  0  0
  136.0480  150.5864  142.0177 C   0  0  0  0  0  0  0  0  0  0  0  0
  136.0161  152.0403  145.3136 N   0  0  0  0  0  0  0  0  0  0  0  0
  1  2  2  0
  1  3  1  0
  2  4  1  0
  4  5  2  0
  3  6  1  0
  6  7  2  0
  7  8  1  0
  8  9  1  0
  3 10  2  0
  5 10  1  0
  8 11  2  0
 10 11  1  0
  9 12  2  0
M  END
$$$$
