
     RDKit          3D

 12 13  0  0  0  0  0  0  0  0999 V2000
  140.3036  150.2148  139.4783 Cl  0  0  0  0  0  0  0  0  0  0  0  0
  138.6783  150.1860  140.5319 C   0  0  0  0  0  0  0  0  0  0  0  0
  137.6385  149.3831  140.0945 C   0  0  0  0  0  0  0  0  0  0  0  0
  136.4392  149.4569  140.8209 C   0  0  0  0  0  0  0  0  0  0  0  0
  138.9819  150.6978  141.6811 C   0  0  0  0  0  0  0  0  0  0  0  0
  136.5079  150.3497  141.8163 C   0  0  0  0  0  0  0  0  0  0  0  0
  135.2761  150.6086  142.7157 C   0  0  0  0  0  0  0  0  0  0  0  0
  135.7352  151.2618  143.9974 C   0  0  0  0  0  0  0  0  0  0  0  0
  134.9147  151.6768  145.0049 C   0  0  0  0  0  0  0  0  0  0  0  0
  137.6945  150.9112  142.4441 C   0  0  0  0  0  0  0  0  0  0  0  0
  137.6943  151.5746  143.7693 C   0  0  0  0  0  0  0  0  0  0  0  0
  136.8076  151.6781  144.5483 N   0  0  0  0  0  0  0  0  0  0  0  0
  1  2  1  0
  2  3  2  0
  3  4  1  0
  2  5  1  0
  4  6  2  0
  6  7  1  0
  7  8  2  0
  8  9  1  0
  5 10  2  0
  6 10  1  0
 10 11  1  0
  8 12  1  0
 11 12  2  0
M  END
$$$$
