
     RDKit          3D

  9  8  0  0  0  0  0  0  0  0999 V2000
  140.3036  150.2148  139.4783 Cl  0  0  0  0  0  0  0  0  0  0  0  0
  138.6783  150.1860  140.5319 C   0  0  0  0  0  0  0  0  0  0  0  0
  137.6385  149.3831  140.0945 C   0  0  0  0  0  0  0  0  0  0  0  0
  138.8668  150.7183  141.4516 C   0  0  0  0  0  0  0  0  0  0  0  0
  137.8209  150.8018  142.5167 C   0  0  0  0  0  0  0  0  0  0  0  0
  138.0520  151.4561  143.8203 C   0  0  0  0  0  0  0  0  0  0  0  0
  136.9442  151.8360  144.5467 C   0  0  0  0  0  0  0  0  0  0  0  0
  136.5029  149.7041  139.9780 C   0  0  0  0  0  0  0  0  0  0  0  0
  136.0963  150.7949  145.0676 C   0  0  0  0  0  0  0  0  0  0  0  0
  1  2  1  0
  2  3  2  3
  2  4  1  0
  4  5  2  3
  5  6  1  0
  6  7  1  0
  3  8  1  0
  7  9  1  0
M  END
$$$$
