
     RDKit          3D

 12 13  0  0  0  0  0  0  0  0999 V2000
  138.7090  151.1469  142.6269 C   0  0  0  0  0  0  0  0  0  0  0  0
  138.5260  151.9370  143.5114 C   0  0  0  0  0  0  0  0  0  0  0  0
  137.3819  151.6579  144.3963 C   0  0  0  0  0  0  0  0  0  0  0  0
  139.7051  151.1184  141.6077 C   0  0  0  0  0  0  0  0  0  0  0  0
  136.7072  150.4347  144.0265 C   0  0  0  0  0  0  0  0  0  0  0  0
  139.4496  150.8400  140.3164 C   0  0  0  0  0  0  0  0  0  0  0  0
  138.1688  150.1903  140.1998 C   0  0  0  0  0  0  0  0  0  0  0  0
  137.8593  149.7371  138.7840 C   0  0  0  0  0  0  0  0  0  0  0  0
  137.7643  150.0553  142.2577 C   0  0  0  0  0  0  0  0  0  0  0  0
  137.4015  149.7715  141.2341 C   0  0  0  0  0  0  0  0  0  0  0  0
  135.8025  150.1295  145.2153 C   0  0  0  0  0  0  0  0  0  0  0  0
  137.0542  149.6095  143.0953 N   0  0  0  0  0  0  0  0  0  0  0  0
  1  2  1  0
  2  3  2  0
  1  4  1  0
  3  5  1  0
  4  6  2  0
  6  7  1  0
  7  8  1  0
  1  9  2  0
  7 10  2  0
  9 10  1  0
  5 11  1  0
  5 12  2  0
  9 12  1  0
M  END
$$$$
