
     RDKit          3D

 12 13  0  0  0  0  0  0  0  0999 V2000
  140.3036  150.2148  139.4783 Cl  0  0  0  0  0  0  0  0  0  0  0  0
  138.6783  150.1860  140.5319 C   0  0  0  0  0  0  0  0  0  0  0  0
  137.6385  149.3831  140.0945 C   0  0  0  0  0  0  0  0  0  0  0  0
  139.0332  150.8824  141.6179 C   0  0  0  0  0  0  0  0  0  0  0  0
  136.6575  149.6448  140.8215 C   0  0  0  0  0  0  0  0  0  0  0  0
  135.2931  149.1275  140.2769 C   0  0  0  0  0  0  0  0  0  0  0  0
  136.7024  150.5097  141.8835 C   0  0  0  0  0  0  0  0  0  0  0  0
  135.5279  150.7540  142.7997 C   0  0  0  0  0  0  0  0  0  0  0  0
  136.0533  151.3559  144.1204 C   0  0  0  0  0  0  0  0  0  0  0  0
  137.9729  151.0808  142.3801 C   0  0  0  0  0  0  0  0  0  0  0  0
  137.3413  151.6886  144.2119 C   0  0  0  0  0  0  0  0  0  0  0  0
  138.2169  151.6410  143.5882 C   0  0  0  0  0  0  0  0  0  0  0  0
  1  2  1  0
  2  3  2  0
  2  4  1  0
  3  5  1  0
  5  6  1  0
  5  7  2  0
  7  8  1  0
  8  9  2  0
  4 10  2  0
  7 10  1  0
  9 11  1  0
 10 12  1  0
 11 12  2  0
M  END
$$$$
