
     RDKit          3D

 12 13  0  0  0  0  0  0  0  0999 V2000
  139.2621  151.0929  142.4047 C   0  0  0  0  0  0  0  0  0  0  0  0
  138.8616  152.1308  142.9039 C   0  0  0  0  0  0  0  0  0  0  0  0
  137.9118  151.7982  143.7822 C   0  0  0  0  0  0  0  0  0  0  0  0
  138.7623  149.7961  142.5205 C   0  0  0  0  0  0  0  0  0  0  0  0
  137.2977  152.8727  144.6398 C   0  0  0  0  0  0  0  0  0  0  0  0
  136.0129  152.6587  145.2579 C   0  0  0  0  0  0  0  0  0  0  0  0
  135.4442  151.4045  145.0716 C   0  0  0  0  0  0  0  0  0  0  0  0
  137.6583  149.7276  143.4422 C   0  0  0  0  0  0  0  0  0  0  0  0
  140.3310  151.1211  141.2583 C   0  0  0  0  0  0  0  0  0  0  0  0
  137.2584  150.7019  144.1553 C   0  0  0  0  0  0  0  0  0  0  0  0
  135.5232  153.7776  145.9590 C   0  0  0  0  0  0  0  0  0  0  0  0
  136.3851  150.4992  144.8781 C   0  0  0  0  0  0  0  0  0  0  0  0
  1  2  1  0
  2  3  2  0
  1  4  2  0
  3  5  1  0
  5  6  2  0
  6  7  1  0
  4  8  1  0
  1  9  1  0
  3 10  1  0
  8 10  2  0
  6 11  1  0
  7 12  1  0
 10 12  1  0
M  END
$$$$
