
     RDKit          3D

 12 12  0  0  0  0  0  0  0  0999 V2000
  140.3036  150.2148  139.4783 Cl  0  0  0  0  0  0  0  0  0  0  0  0
  138.6783  150.1860  140.5319 C   0  0  0  0  0  0  0  0  0  0  0  0
  137.6385  149.3831  140.0945 C   0  0  0  0  0  0  0  0  0  0  0  0
  137.5439  148.9625  138.7457 C   0  0  0  0  0  0  0  0  0  0  0  0
  138.4874  150.4374  141.7161 C   0  0  0  0  0  0  0  0  0  0  0  0
  136.4941  149.4206  140.9718 C   0  0  0  0  0  0  0  0  0  0  0  0
  137.3995  150.3551  142.5035 C   0  0  0  0  0  0  0  0  0  0  0  0
  139.7629  151.2592  142.5447 Cl  0  0  0  0  0  0  0  0  0  0  0  0
  137.3103  150.9470  143.9439 C   0  0  0  0  0  0  0  0  0  0  0  0
  136.2313  149.8958  142.0470 C   0  0  0  0  0  0  0  0  0  0  0  0
  136.1450  151.3589  144.4416 C   0  0  0  0  0  0  0  0  0  0  0  0
  136.1223  152.0154  145.7663 C   0  0  0  0  0  0  0  0  0  0  0  0
  1  2  1  0
  2  3  2  0
  3  4  1  0
  2  5  1  0
  3  6  1  0
  5  7  2  0
  5  8  1  0
  7  9  1  0
  6 10  2  0
  7 10  1  0
  9 11  1  0
 11 12  1  0
M  END
$$$$
