
     RDKit          3D

 12 13  0  0  0  0  0  0  0  0999 V2000
  139.3427  149.9935  140.5880 C   0  0  0  0  0  0  0  0  0  0  0  0
  138.9528  149.9224  139.3656 C   0  0  0  0  0  0  0  0  0  0  0  0
  138.6122  150.1102  141.6416 C   0  0  0  0  0  0  0  0  0  0  0  0
  137.1910  149.8704  141.8331 C   0  0  0  0  0  0  0  0  0  0  0  0
  136.4707  150.2696  142.9684 C   0  0  0  0  0  0  0  0  0  0  0  0
  135.1320  150.3575  143.2741 C   0  0  0  0  0  0  0  0  0  0  0  0
  134.7294  151.0382  144.5260 C   0  0  0  0  0  0  0  0  0  0  0  0
  137.5216  150.6555  144.0748 C   0  0  0  0  0  0  0  0  0  0  0  0
  135.5802  151.5165  145.2506 C   0  0  0  0  0  0  0  0  0  0  0  0
  137.1990  151.4827  145.0820 C   0  0  0  0  0  0  0  0  0  0  0  0
  135.2770  152.3945  146.4564 C   0  0  0  0  0  0  0  0  0  0  0  0
  138.7878  150.8344  143.1691 C   0  0  0  0  0  0  0  0  0  0  0  0
  1  2  2  0
  1  3  1  0
  3  4  1  0
  4  5  2  0
  5  6  1  0
  6  7  2  0
  5  8  1  0
  7  9  1  0
  8 10  1  0
  9 10  1  0
  9 11  1  0
  3 12  2  0
  8 12  1  0
M  END
$$$$
