
     RDKit          3D

 12 12  0  0  0  0  0  0  0  0999 V2000
  139.5348  150.8906  142.2305 C   0  0  0  0  0  0  0  0  0  0  0  0
  139.0139  150.3976  141.0574 C   0  0  0  0  0  0  0  0  0  0  0  0
  138.6965  150.9489  143.4028 C   0  0  0  0  0  0  0  0  0  0  0  0
  137.7130  149.9460  141.0427 C   0  0  0  0  0  0  0  0  0  0  0  0
  137.5183  150.9374  143.4785 C   0  0  0  0  0  0  0  0  0  0  0  0
  136.6733  151.1274  144.6812 C   0  0  0  0  0  0  0  0  0  0  0  0
  139.8472  150.3901  139.8637 C   0  0  0  0  0  0  0  0  0  0  0  0
  135.5811  151.9101  144.4971 C   0  0  0  0  0  0  0  0  0  0  0  0
  134.7628  152.3266  145.7390 C   0  0  0  0  0  0  0  0  0  0  0  0
  134.7334  153.5989  145.9806 C   0  0  0  0  0  0  0  0  0  0  0  0
  136.7857  150.3082  141.9830 C   0  0  0  0  0  0  0  0  0  0  0  0
  139.3174  150.4004  138.6396 C   0  0  0  0  0  0  0  0  0  0  0  0
  1  2  2  0
  1  3  1  0
  2  4  1  0
  3  5  2  0
  5  6  1  0
  2  7  1  0
  6  8  1  0
  8  9  1  0
  9 10  1  0
  4 11  2  0
  5 11  1  0
  7 12  2  0
M  END
$$$$
