
     RDKit          3D

 12 12  0  0  0  0  0  0  0  0999 V2000
  140.3036  150.2148  139.4783 Cl  0  0  0  0  0  0  0  0  0  0  0  0
  138.6783  150.1860  140.5319 C   0  0  0  0  0  0  0  0  0  0  0  0
  137.6385  149.3831  140.0945 C   0  0  0  0  0  0  0  0  0  0  0  0
  138.7505  150.9487  141.6715 C   0  0  0  0  0  0  0  0  0  0  0  0
  136.4550  149.4179  140.9244 C   0  0  0  0  0  0  0  0  0  0  0  0
  135.2917  148.8306  140.2885 C   0  0  0  0  0  0  0  0  0  0  0  0
  137.7785  150.8083  142.6460 C   0  0  0  0  0  0  0  0  0  0  0  0
  137.9076  151.4597  143.9397 C   0  0  0  0  0  0  0  0  0  0  0  0
  136.7746  151.5623  144.7391 C   0  0  0  0  0  0  0  0  0  0  0  0
  136.8107  152.3454  145.9527 C   0  0  0  0  0  0  0  0  0  0  0  0
  135.4268  152.8607  146.2944 C   0  0  0  0  0  0  0  0  0  0  0  0
  136.8057  150.2476  141.9001 C   0  0  0  0  0  0  0  0  0  0  0  0
  1  2  1  0
  2  3  2  0
  2  4  1  0
  3  5  1  0
  5  6  1  0
  4  7  2  0
  7  8  1  0
  8  9  2  3
  9 10  1  0
 10 11  1  0
  5 12  2  0
  7 12  1  0
M  END
$$$$
