
     RDKit          3D

 12 13  0  0  0  0  0  0  0  0999 V2000
  138.7090  151.1469  142.6269 C   0  0  0  0  0  0  0  0  0  0  0  0
  138.5260  151.9370  143.5114 C   0  0  0  0  0  0  0  0  0  0  0  0
  137.4749  151.6734  144.4638 C   0  0  0  0  0  0  0  0  0  0  0  0
  138.0103  149.8673  142.4738 C   0  0  0  0  0  0  0  0  0  0  0  0
  136.7212  150.4817  144.2964 C   0  0  0  0  0  0  0  0  0  0  0  0
  136.9974  149.5746  143.3594 C   0  0  0  0  0  0  0  0  0  0  0  0
  139.9266  151.4812  141.3818 S   0  0  0  0  0  0  0  0  0  0  0  0
  139.3329  150.2771  140.2692 C   0  0  0  0  0  0  0  0  0  0  0  0
  138.4011  149.2335  141.2158 C   0  0  0  0  0  0  0  0  0  0  0  0
  137.1462  152.6320  145.5013 O   0  0  0  0  0  0  0  0  0  0  0  0
  136.6182  153.8200  145.0744 C   0  0  0  0  0  0  0  0  0  0  0  0
  140.0738  149.8202  139.3141 C   0  0  0  0  0  0  0  0  0  0  0  0
  1  2  2  0
  2  3  1  0
  1  4  1  0
  3  5  2  0
  4  6  2  0
  5  6  1  0
  1  7  1  0
  7  8  1  0
  4  9  1  0
  8  9  1  0
  3 10  1  0
 10 11  1  0
  8 12  1  0
M  END
$$$$
