
     RDKit          3D

  9  9  0  0  0  0  0  0  0  0999 V2000
  139.0004  149.7631  140.3649 C   0  0  0  0  0  0  0  0  0  0  0  0
  139.7623  150.8543  140.7370 C   0  0  0  0  0  0  0  0  0  0  0  0
  139.2605  149.1459  139.1745 C   0  0  0  0  0  0  0  0  0  0  0  0
  139.5454  151.5142  142.0095 C   0  0  0  0  0  0  0  0  0  0  0  0
  138.4600  150.9915  142.6960 C   0  0  0  0  0  0  0  0  0  0  0  0
  137.9001  149.5381  141.2311 C   0  0  0  0  0  0  0  0  0  0  0  0
  136.9799  148.5381  140.6070 C   0  0  0  0  0  0  0  0  0  0  0  0
  137.6905  150.0855  142.3755 C   0  0  0  0  0  0  0  0  0  0  0  0
  138.2129  151.7964  144.4018 Cl  0  0  0  0  0  0  0  0  0  0  0  0
  1  2  2  0
  1  3  1  0
  2  4  1  0
  4  5  2  0
  1  6  1  0
  6  7  1  0
  5  8  1  0
  6  8  2  0
  5  9  1  0
M  END
$$$$
