
     RDKit          3D

 12 13  0  0  0  0  0  0  0  0999 V2000
  140.3036  150.2148  139.4783 Cl  0  0  0  0  0  0  0  0  0  0  0  0
  138.6783  150.1860  140.5319 C   0  0  0  0  0  0  0  0  0  0  0  0
  137.6385  149.3831  140.0945 C   0  0  0  0  0  0  0  0  0  0  0  0
  138.7505  150.9487  141.6715 C   0  0  0  0  0  0  0  0  0  0  0  0
  136.5606  149.6034  140.7973 C   0  0  0  0  0  0  0  0  0  0  0  0
  136.3933  150.3970  141.9259 C   0  0  0  0  0  0  0  0  0  0  0  0
  135.1767  150.5746  142.7425 C   0  0  0  0  0  0  0  0  0  0  0  0
  137.6240  151.0454  142.4631 C   0  0  0  0  0  0  0  0  0  0  0  0
  135.5570  151.3774  144.0086 C   0  0  0  0  0  0  0  0  0  0  0  0
  136.4033  150.8169  144.9846 C   0  0  0  0  0  0  0  0  0  0  0  0
  137.4646  151.6144  145.1063 C   0  0  0  0  0  0  0  0  0  0  0  0
  137.7785  151.7158  143.8090 C   0  0  0  0  0  0  0  0  0  0  0  0
  1  2  1  0
  2  3  2  0
  2  4  1  0
  3  5  1  0
  5  6  2  0
  6  7  1  0
  4  8  2  0
  6  8  1  0
  7  9  1  0
  9 10  1  0
 10 11  1  0
  8 12  1  0
 11 12  1  0
M  END
$$$$
