
     RDKit          3D

 12 13  0  0  0  0  0  0  0  0999 V2000
  138.7090  151.1469  142.6269 C   0  0  0  0  0  0  0  0  0  0  0  0
  138.5260  151.9370  143.5114 C   0  0  0  0  0  0  0  0  0  0  0  0
  137.4749  151.6734  144.4638 C   0  0  0  0  0  0  0  0  0  0  0  0
  138.0103  149.8673  142.4738 C   0  0  0  0  0  0  0  0  0  0  0  0
  136.7212  150.4817  144.2964 C   0  0  0  0  0  0  0  0  0  0  0  0
  137.0162  149.5952  143.3274 C   0  0  0  0  0  0  0  0  0  0  0  0
  137.1315  152.6397  145.4953 C   0  0  0  0  0  0  0  0  0  0  0  0
  139.7947  151.3208  141.5586 C   0  0  0  0  0  0  0  0  0  0  0  0
  139.6348  150.8453  140.3349 C   0  0  0  0  0  0  0  0  0  0  0  0
  138.6093  149.9999  139.9899 C   0  0  0  0  0  0  0  0  0  0  0  0
  135.7843  152.8120  145.9082 C   0  0  0  0  0  0  0  0  0  0  0  0
  138.0914  149.1888  141.2031 N   0  0  0  0  0  0  0  0  0  0  0  0
  1  2  2  0
  2  3  1  0
  1  4  1  0
  3  5  2  0
  4  6  2  0
  5  6  1  0
  3  7  1  0
  1  8  1  0
  8  9  2  0
  9 10  1  0
  7 11  1  0
  4 12  1  0
 10 12  2  0
M  END
$$$$
