
     RDKit          3D

 12 12  0  0  0  0  0  0  0  0999 V2000
  140.3036  150.2148  139.4783 Cl  0  0  0  0  0  0  0  0  0  0  0  0
  138.6783  150.1860  140.5319 C   0  0  0  0  0  0  0  0  0  0  0  0
  137.6385  149.3831  140.0945 C   0  0  0  0  0  0  0  0  0  0  0  0
  138.7733  150.9283  141.6507 C   0  0  0  0  0  0  0  0  0  0  0  0
  137.6844  150.8835  142.5421 C   0  0  0  0  0  0  0  0  0  0  0  0
  137.8374  151.5218  143.8915 C   0  0  0  0  0  0  0  0  0  0  0  0
  136.6920  151.6926  144.6953 C   0  0  0  0  0  0  0  0  0  0  0  0
  137.6542  148.8478  138.8366 C   0  0  0  0  0  0  0  0  0  0  0  0
  135.5431  151.0559  144.2075 C   0  0  0  0  0  0  0  0  0  0  0  0
  136.5025  149.6294  140.8401 C   0  0  0  0  0  0  0  0  0  0  0  0
  136.5361  150.2397  141.9733 C   0  0  0  0  0  0  0  0  0  0  0  0
  136.8759  152.3655  145.9358 C   0  0  0  0  0  0  0  0  0  0  0  0
  1  2  1  0
  2  3  1  0
  2  4  2  0
  4  5  1  0
  5  6  1  0
  6  7  2  3
  3  8  1  0
  7  9  1  0
  3 10  2  0
  5 11  2  0
 10 11  1  0
  7 12  1  0
M  END
$$$$
