
     RDKit          3D

  9  9  0  0  0  0  0  0  0  0999 V2000
  138.7236  151.5756  143.3190 C   0  0  0  0  0  0  0  0  0  0  0  0
  137.9189  152.3262  143.7538 C   0  0  0  0  0  0  0  0  0  0  0  0
  136.7533  151.7852  144.4573 C   0  0  0  0  0  0  0  0  0  0  0  0
  136.8351  150.4435  144.7144 C   0  0  0  0  0  0  0  0  0  0  0  0
  135.6793  152.5089  145.0370 C   0  0  0  0  0  0  0  0  0  0  0  0
  138.5044  150.1682  143.2677 C   0  0  0  0  0  0  0  0  0  0  0  0
  139.3891  149.2732  142.5582 C   0  0  0  0  0  0  0  0  0  0  0  0
  137.7441  149.6060  144.0372 N   0  0  0  0  0  0  0  0  0  0  0  0
  134.6033  151.9865  145.7996 C   0  0  0  0  0  0  0  0  0  0  0  0
  1  2  1  0
  2  3  2  0
  3  4  1  0
  3  5  1  0
  1  6  2  0
  6  7  1  0
  4  8  2  0
  6  8  1  0
  5  9  1  0
M  END
$$$$
