
     RDKit          3D

  9  9  0  0  0  0  0  0  0  0999 V2000
  139.3427  149.9935  140.5880 C   0  0  0  0  0  0  0  0  0  0  0  0
  138.9528  149.9224  139.3656 C   0  0  0  0  0  0  0  0  0  0  0  0
  138.6122  150.1102  141.6416 C   0  0  0  0  0  0  0  0  0  0  0  0
  137.1910  149.8704  141.8331 C   0  0  0  0  0  0  0  0  0  0  0  0
  136.4707  150.2696  142.9684 C   0  0  0  0  0  0  0  0  0  0  0  0
  137.3907  150.8159  143.7457 C   0  0  0  0  0  0  0  0  0  0  0  0
  138.8914  150.6079  143.0697 C   0  0  0  0  0  0  0  0  0  0  0  0
  140.7006  150.4231  140.6881 C   0  0  0  0  0  0  0  0  0  0  0  0
  137.2737  151.4568  144.6761 O   0  0  0  0  0  0  0  0  0  0  0  0
  1  2  2  0
  1  3  1  0
  3  4  1  0
  4  5  2  0
  5  6  1  0
  3  7  1  0
  6  7  1  0
  1  8  1  0
  6  9  2  0
M  END
$$$$
