
     RDKit          3D

 13 14  0  0  0  0  0  0  0  0999 V2000
  138.7090  151.1469  142.6269 C   0  0  0  0  0  0  0  0  0  0  0  0
  138.5260  151.9370  143.5114 C   0  0  0  0  0  0  0  0  0  0  0  0
  137.3819  151.6579  144.3963 C   0  0  0  0  0  0  0  0  0  0  0  0
  139.7051  151.1184  141.6077 C   0  0  0  0  0  0  0  0  0  0  0  0
  136.7557  152.5772  145.3074 C   0  0  0  0  0  0  0  0  0  0  0  0
  139.6288  150.4580  140.3315 C   0  0  0  0  0  0  0  0  0  0  0  0
  138.4571  149.6004  140.4454 C   0  0  0  0  0  0  0  0  0  0  0  0
  135.4568  152.3937  145.7654 C   0  0  0  0  0  0  0  0  0  0  0  0
  137.5807  149.8923  141.3497 C   0  0  0  0  0  0  0  0  0  0  0  0
  137.6649  150.5103  142.4529 C   0  0  0  0  0  0  0  0  0  0  0  0
  140.8234  150.4314  139.4162 C   0  0  0  0  0  0  0  0  0  0  0  0
  136.6406  150.6522  144.4404 C   0  0  0  0  0  0  0  0  0  0  0  0
  135.2151  151.0661  145.3288 C   0  0  0  0  0  0  0  0  0  0  0  0
  1  2  1  0
  2  3  2  3
  1  4  1  0
  3  5  1  0
  4  6  2  0
  6  7  1  0
  5  8  1  0
  7  9  2  0
  1 10  2  0
  9 10  1  0
  6 11  1  0
  3 12  1  0
  8 13  2  0
 12 13  1  0
M  END
$$$$
