
     RDKit          3D

  9  9  0  0  0  0  0  0  0  0999 V2000
  139.2621  151.0929  142.4047 C   0  0  0  0  0  0  0  0  0  0  0  0
  138.8616  152.1308  142.9039 C   0  0  0  0  0  0  0  0  0  0  0  0
  137.9118  151.7982  143.7822 C   0  0  0  0  0  0  0  0  0  0  0  0
  138.7623  149.7961  142.5205 C   0  0  0  0  0  0  0  0  0  0  0  0
  137.2977  152.8727  144.6398 C   0  0  0  0  0  0  0  0  0  0  0  0
  136.0129  152.6587  145.2579 C   0  0  0  0  0  0  0  0  0  0  0  0
  135.4442  151.4045  145.0716 C   0  0  0  0  0  0  0  0  0  0  0  0
  137.4840  150.3778  143.7817 C   0  0  0  0  0  0  0  0  0  0  0  0
  135.4371  153.7076  145.9405 C   0  0  0  0  0  0  0  0  0  0  0  0
  1  2  1  0
  2  3  2  0
  1  4  2  0
  3  5  1  0
  5  6  2  3
  6  7  1  0
  3  8  1  0
  4  8  1  0
  6  9  1  0
M  END
$$$$
