
     RDKit          3D

 13 14  0  0  0  0  0  0  0  0999 V2000
  140.3036  150.2148  139.4783 Cl  0  0  0  0  0  0  0  0  0  0  0  0
  138.6783  150.1860  140.5319 C   0  0  0  0  0  0  0  0  0  0  0  0
  137.6385  149.3831  140.0945 C   0  0  0  0  0  0  0  0  0  0  0  0
  139.0332  150.8824  141.6179 C   0  0  0  0  0  0  0  0  0  0  0  0
  136.6575  149.6448  140.8215 C   0  0  0  0  0  0  0  0  0  0  0  0
  136.6519  150.4533  141.8775 C   0  0  0  0  0  0  0  0  0  0  0  0
  135.4324  150.7378  142.7868 C   0  0  0  0  0  0  0  0  0  0  0  0
  135.9124  151.2971  144.0363 C   0  0  0  0  0  0  0  0  0  0  0  0
  135.1483  151.6877  145.1219 C   0  0  0  0  0  0  0  0  0  0  0  0
  137.2035  151.4305  144.3067 C   0  0  0  0  0  0  0  0  0  0  0  0
  137.8658  151.0877  142.3896 C   0  0  0  0  0  0  0  0  0  0  0  0
  135.4864  152.8148  145.7784 C   0  0  0  0  0  0  0  0  0  0  0  0
  138.3114  151.5832  143.5857 C   0  0  0  0  0  0  0  0  0  0  0  0
  1  2  1  0
  2  3  2  0
  2  4  1  0
  3  5  1  0
  5  6  2  0
  6  7  1  0
  7  8  2  0
  8  9  1  0
  8 10  1  0
  4 11  2  0
  6 11  1  0
  9 12  1  0
 10 13  2  0
 11 13  1  0
M  END
$$$$
