
     RDKit          3D

 13 14  0  0  0  0  0  0  0  0999 V2000
  139.3427  149.9935  140.5880 C   0  0  0  0  0  0  0  0  0  0  0  0
  138.9528  149.9224  139.3656 C   0  0  0  0  0  0  0  0  0  0  0  0
  138.6122  150.1102  141.6416 C   0  0  0  0  0  0  0  0  0  0  0  0
  137.1910  149.8704  141.8331 C   0  0  0  0  0  0  0  0  0  0  0  0
  136.5134  149.7658  140.5812 C   0  0  0  0  0  0  0  0  0  0  0  0
  139.1788  150.4012  143.1353 C   0  0  0  0  0  0  0  0  0  0  0  0
  138.2249  150.9731  144.0852 C   0  0  0  0  0  0  0  0  0  0  0  0
  136.4855  150.1086  143.0259 C   0  0  0  0  0  0  0  0  0  0  0  0
  139.6856  149.9021  138.1886 C   0  0  0  0  0  0  0  0  0  0  0  0
  136.9969  150.6445  144.1273 C   0  0  0  0  0  0  0  0  0  0  0  0
  135.1590  149.5880  140.4716 C   0  0  0  0  0  0  0  0  0  0  0  0
  137.4346  149.6574  139.2970 C   0  0  0  0  0  0  0  0  0  0  0  0
  136.0359  151.0067  145.4273 C   0  0  0  0  0  0  0  0  0  0  0  0
  1  2  2  0
  1  3  1  0
  3  4  1  0
  4  5  2  0
  3  6  1  0
  6  7  2  0
  4  8  1  0
  2  9  1  0
  7 10  1  0
  8 10  2  0
  5 11  1  0
  2 12  1  0
  5 12  1  0
 10 13  1  0
M  END
$$$$
