
     RDKit          3D

  9  9  0  0  0  0  0  0  0  0999 V2000
  140.3036  150.2148  139.4783 Cl  0  0  0  0  0  0  0  0  0  0  0  0
  138.6783  150.1860  140.5319 C   0  0  0  0  0  0  0  0  0  0  0  0
  137.6385  149.3831  140.0945 C   0  0  0  0  0  0  0  0  0  0  0  0
  137.5439  148.9625  138.7457 C   0  0  0  0  0  0  0  0  0  0  0  0
  138.4874  150.4374  141.7161 C   0  0  0  0  0  0  0  0  0  0  0  0
  136.4941  149.4206  140.9718 C   0  0  0  0  0  0  0  0  0  0  0  0
  137.3995  150.3551  142.5035 C   0  0  0  0  0  0  0  0  0  0  0  0
  139.7629  151.2592  142.5447 Cl  0  0  0  0  0  0  0  0  0  0  0  0
  136.2813  149.8424  142.0106 C   0  0  0  0  0  0  0  0  0  0  0  0
  1  2  1  0
  2  3  2  0
  3  4  1  0
  2  5  1  0
  3  6  1  0
  5  7  2  0
  5  8  1  0
  6  9  2  0
  7  9  1  0
M  END
$$$$
