
     RDKit          3D

 13 14  0  0  0  0  0  0  0  0999 V2000
  139.5348  150.8906  142.2305 C   0  0  0  0  0  0  0  0  0  0  0  0
  139.0139  150.3976  141.0574 C   0  0  0  0  0  0  0  0  0  0  0  0
  138.6965  150.9489  143.4028 C   0  0  0  0  0  0  0  0  0  0  0  0
  137.7130  149.9460  141.0427 C   0  0  0  0  0  0  0  0  0  0  0  0
  137.5183  150.9374  143.4785 C   0  0  0  0  0  0  0  0  0  0  0  0
  136.6733  151.1274  144.6812 C   0  0  0  0  0  0  0  0  0  0  0  0
  139.8472  150.3901  139.8637 C   0  0  0  0  0  0  0  0  0  0  0  0
  136.7200  150.2063  141.8846 C   0  0  0  0  0  0  0  0  0  0  0  0
  136.4930  150.6203  143.0434 C   0  0  0  0  0  0  0  0  0  0  0  0
  135.8664  151.8203  144.7141 C   0  0  0  0  0  0  0  0  0  0  0  0
  135.0712  152.5387  145.8229 C   0  0  0  0  0  0  0  0  0  0  0  0
  139.3709  150.4965  138.6493 C   0  0  0  0  0  0  0  0  0  0  0  0
  135.2292  151.3278  143.4663 C   0  0  0  0  0  0  0  0  0  0  0  0
  1  2  2  0
  1  3  1  0
  2  4  1  0
  3  5  2  0
  5  6  1  0
  2  7  1  0
  4  8  2  0
  5  9  1  0
  8  9  1  0
  6 10  2  0
 10 11  1  0
  7 12  2  0
  9 13  2  0
 10 13  1  0
M  END
$$$$
