
     RDKit          3D

 13 14  0  0  0  0  0  0  0  0999 V2000
  138.9705  151.3124  142.5681 C   0  0  0  0  0  0  0  0  0  0  0  0
  138.6057  152.0894  143.2653 C   0  0  0  0  0  0  0  0  0  0  0  0
  137.6600  151.8349  144.0467 C   0  0  0  0  0  0  0  0  0  0  0  0
  139.9939  151.3511  141.4314 C   0  0  0  0  0  0  0  0  0  0  0  0
  137.4795  150.6675  144.8972 C   0  0  0  0  0  0  0  0  0  0  0  0
  139.6568  150.7243  140.2644 C   0  0  0  0  0  0  0  0  0  0  0  0
  138.5004  150.0428  140.1974 C   0  0  0  0  0  0  0  0  0  0  0  0
  137.5686  149.8234  141.3807 C   0  0  0  0  0  0  0  0  0  0  0  0
  136.3093  149.2802  141.1766 C   0  0  0  0  0  0  0  0  0  0  0  0
  138.1078  150.4070  142.5636 C   0  0  0  0  0  0  0  0  0  0  0  0
  137.4433  149.7661  143.6829 C   0  0  0  0  0  0  0  0  0  0  0  0
  138.0802  149.4454  139.0083 C   0  0  0  0  0  0  0  0  0  0  0  0
  139.0275  149.4881  137.9704 C   0  0  0  0  0  0  0  0  0  0  0  0
  1  2  2  0
  2  3  1  0
  1  4  1  0
  3  5  2  0
  4  6  2  0
  6  7  1  0
  7  8  1  0
  8  9  2  0
  1 10  1  0
  8 10  1  0
  5 11  1  0
 10 11  2  0
  7 12  2  3
 12 13  1  0
M  END
$$$$
