
     RDKit          3D

  9  8  0  0  0  0  0  0  0  0999 V2000
  139.2621  151.0929  142.4047 C   0  0  0  0  0  0  0  0  0  0  0  0
  138.8616  152.1308  142.9039 C   0  0  0  0  0  0  0  0  0  0  0  0
  137.7831  151.8921  143.8937 C   0  0  0  0  0  0  0  0  0  0  0  0
  140.0672  150.9660  141.1527 C   0  0  0  0  0  0  0  0  0  0  0  0
  139.7978  150.5477  140.1018 C   0  0  0  0  0  0  0  0  0  0  0  0
  137.0760  152.8082  144.6481 C   0  0  0  0  0  0  0  0  0  0  0  0
  136.1232  152.7107  145.2081 C   0  0  0  0  0  0  0  0  0  0  0  0
  138.6010  149.6978  140.0566 C   0  0  0  0  0  0  0  0  0  0  0  0
  135.4261  151.3986  145.2692 C   0  0  0  0  0  0  0  0  0  0  0  0
  1  2  1  0
  2  3  2  3
  1  4  1  0
  4  5  2  3
  3  6  1  0
  6  7  2  3
  5  8  1  0
  7  9  1  0
M  END
$$$$
