
     RDKit          3D

 13 14  0  0  0  0  0  0  0  0999 V2000
  140.3036  150.2148  139.4783 Cl  0  0  0  0  0  0  0  0  0  0  0  0
  138.6783  150.1860  140.5319 C   0  0  0  0  0  0  0  0  0  0  0  0
  137.6385  149.3831  140.0945 C   0  0  0  0  0  0  0  0  0  0  0  0
  136.4392  149.4569  140.8209 C   0  0  0  0  0  0  0  0  0  0  0  0
  138.9819  150.6978  141.6811 C   0  0  0  0  0  0  0  0  0  0  0  0
  136.5079  150.3497  141.8163 C   0  0  0  0  0  0  0  0  0  0  0  0
  135.2761  150.6086  142.7157 C   0  0  0  0  0  0  0  0  0  0  0  0
  135.7352  151.2618  143.9974 C   0  0  0  0  0  0  0  0  0  0  0  0
  137.7540  150.9184  142.4496 C   0  0  0  0  0  0  0  0  0  0  0  0
  134.9719  151.8971  144.8940 C   0  0  0  0  0  0  0  0  0  0  0  0
  137.1774  151.1729  144.3192 C   0  0  0  0  0  0  0  0  0  0  0  0
  138.0160  151.2638  143.7674 C   0  0  0  0  0  0  0  0  0  0  0  0
  135.2663  151.9934  146.2473 C   0  0  0  0  0  0  0  0  0  0  0  0
  1  2  1  0
  2  3  2  0
  3  4  1  0
  2  5  1  0
  4  6  2  0
  6  7  1  0
  7  8  1  0
  5  9  2  0
  6  9  1  0
  8 10  2  3
  8 11  1  0
  9 12  1  0
 11 12  2  0
 10 13  1  0
M  END
$$$$
