
     RDKit          3D

 13 14  0  0  0  0  0  0  0  0999 V2000
  140.3036  150.2148  139.4783 Cl  0  0  0  0  0  0  0  0  0  0  0  0
  138.6783  150.1860  140.5319 C   0  0  0  0  0  0  0  0  0  0  0  0
  137.6385  149.3831  140.0945 C   0  0  0  0  0  0  0  0  0  0  0  0
  138.7505  150.9487  141.6715 C   0  0  0  0  0  0  0  0  0  0  0  0
  136.5606  149.6034  140.7973 C   0  0  0  0  0  0  0  0  0  0  0  0
  135.2960  149.0163  140.1852 C   0  0  0  0  0  0  0  0  0  0  0  0
  136.5422  150.4642  141.8563 C   0  0  0  0  0  0  0  0  0  0  0  0
  135.3353  150.6737  142.7430 C   0  0  0  0  0  0  0  0  0  0  0  0
  135.8342  151.3152  144.0623 C   0  0  0  0  0  0  0  0  0  0  0  0
  135.0704  151.6892  145.1071 C   0  0  0  0  0  0  0  0  0  0  0  0
  137.3358  151.5215  144.0764 C   0  0  0  0  0  0  0  0  0  0  0  0
  137.7019  151.0532  142.3840 C   0  0  0  0  0  0  0  0  0  0  0  0
  135.4885  151.8583  146.3292 C   0  0  0  0  0  0  0  0  0  0  0  0
  1  2  1  0
  2  3  2  0
  2  4  1  0
  3  5  1  0
  5  6  1  0
  5  7  2  0
  7  8  1  0
  8  9  2  0
  9 10  1  0
  9 11  1  0
  4 12  2  0
  7 12  1  0
 11 12  1  0
 10 13  1  0
M  END
$$$$
