
     RDKit          3D

 14 15  0  0  0  0  0  0  0  0999 V2000
  139.3427  149.9935  140.5880 C   0  0  0  0  0  0  0  0  0  0  0  0
  138.9528  149.9224  139.3656 C   0  0  0  0  0  0  0  0  0  0  0  0
  138.6122  150.1102  141.6416 C   0  0  0  0  0  0  0  0  0  0  0  0
  137.1910  149.8704  141.8331 C   0  0  0  0  0  0  0  0  0  0  0  0
  136.5134  149.7658  140.5812 C   0  0  0  0  0  0  0  0  0  0  0  0
  139.1788  150.4012  143.1353 C   0  0  0  0  0  0  0  0  0  0  0  0
  138.2249  150.9731  144.0852 C   0  0  0  0  0  0  0  0  0  0  0  0
  139.6664  149.8788  138.1669 C   0  0  0  0  0  0  0  0  0  0  0  0
  136.9452  150.8349  143.8835 C   0  0  0  0  0  0  0  0  0  0  0  0
  136.2904  150.3096  142.8062 C   0  0  0  0  0  0  0  0  0  0  0  0
  136.1187  151.3332  145.0488 C   0  0  0  0  0  0  0  0  0  0  0  0
  136.3123  151.1428  146.3186 C   0  0  0  0  0  0  0  0  0  0  0  0
  137.4183  149.7263  139.3770 C   0  0  0  0  0  0  0  0  0  0  0  0
  134.9530  152.2227  144.7920 C   0  0  0  0  0  0  0  0  0  0  0  0
  1  2  2  0
  1  3  1  0
  3  4  1  0
  4  5  2  0
  3  6  1  0
  6  7  2  0
  2  8  1  0
  7  9  1  0
  4 10  1  0
  9 10  1  0
  9 11  1  0
 11 12  2  0
  2 13  1  0
  5 13  1  0
 11 14  1  0
M  END
$$$$
