
     RDKit          3D

 14 15  0  0  0  0  0  0  0  0999 V2000
  139.0004  149.7631  140.3649 C   0  0  0  0  0  0  0  0  0  0  0  0
  138.7142  149.5451  139.1249 C   0  0  0  0  0  0  0  0  0  0  0  0
  138.1856  150.1072  141.2839 C   0  0  0  0  0  0  0  0  0  0  0  0
  137.3213  149.5926  138.6821 C   0  0  0  0  0  0  0  0  0  0  0  0
  136.3776  149.8122  139.7323 C   0  0  0  0  0  0  0  0  0  0  0  0
  138.6498  150.4524  142.6761 C   0  0  0  0  0  0  0  0  0  0  0  0
  137.8095  150.9703  143.6446 C   0  0  0  0  0  0  0  0  0  0  0  0
  136.5355  151.0899  143.2204 C   0  0  0  0  0  0  0  0  0  0  0  0
  135.6032  151.5335  144.2586 C   0  0  0  0  0  0  0  0  0  0  0  0
  136.7388  150.1451  141.0023 C   0  0  0  0  0  0  0  0  0  0  0  0
  136.0053  150.6929  141.9649 C   0  0  0  0  0  0  0  0  0  0  0  0
  135.4586  151.1855  145.3749 C   0  0  0  0  0  0  0  0  0  0  0  0
  134.9147  152.0193  146.4838 C   0  0  0  0  0  0  0  0  0  0  0  0
  135.2262  152.0054  147.8398 C   0  0  0  0  0  0  0  0  0  0  0  0
  1  2  2  0
  1  3  1  0
  2  4  1  0
  4  5  2  0
  3  6  1  0
  6  7  2  0
  7  8  1  0
  8  9  1  0
  3 10  2  0
  5 10  1  0
  8 11  2  0
 10 11  1  0
  9 12  1  0
 12 13  2  3
 13 14  1  0
M  END
$$$$
