
     RDKit          3D

 14 15  0  0  0  0  0  0  0  0999 V2000
  138.9705  151.3124  142.5681 C   0  0  0  0  0  0  0  0  0  0  0  0
  138.6057  152.0894  143.2653 C   0  0  0  0  0  0  0  0  0  0  0  0
  137.5209  151.8314  144.2019 C   0  0  0  0  0  0  0  0  0  0  0  0
  136.5811  152.7823  144.6505 C   0  0  0  0  0  0  0  0  0  0  0  0
  139.7956  151.3595  141.3741 C   0  0  0  0  0  0  0  0  0  0  0  0
  135.9804  152.8193  145.6528 C   0  0  0  0  0  0  0  0  0  0  0  0
  139.5360  150.6466  140.2953 C   0  0  0  0  0  0  0  0  0  0  0  0
  136.0633  151.5366  146.3570 C   0  0  0  0  0  0  0  0  0  0  0  0
  138.3949  149.8648  140.3621 C   0  0  0  0  0  0  0  0  0  0  0  0
  137.2544  150.6517  144.9179 C   0  0  0  0  0  0  0  0  0  0  0  0
  135.2489  151.5097  147.6255 C   0  0  0  0  0  0  0  0  0  0  0  0
  138.3324  150.0602  142.3870 C   0  0  0  0  0  0  0  0  0  0  0  0
  137.9085  149.3976  141.4055 C   0  0  0  0  0  0  0  0  0  0  0  0
  136.5400  150.4786  146.0176 C   0  0  0  0  0  0  0  0  0  0  0  0
  1  2  2  3
  2  3  1  0
  3  4  1  0
  1  5  1  0
  4  6  2  0
  5  7  2  0
  6  8  1  0
  7  9  1  0
  3 10  2  0
  8 11  1  0
  1 12  1  0
  9 13  1  0
 12 13  2  0
  8 14  2  0
 10 14  1  0
M  END
$$$$
