
     RDKit          3D

 14 15  0  0  0  0  0  0  0  0999 V2000
  139.3427  149.9935  140.5880 C   0  0  0  0  0  0  0  0  0  0  0  0
  138.9528  149.9224  139.3656 C   0  0  0  0  0  0  0  0  0  0  0  0
  138.6122  150.1102  141.6416 C   0  0  0  0  0  0  0  0  0  0  0  0
  137.1910  149.8704  141.8331 C   0  0  0  0  0  0  0  0  0  0  0  0
  136.5134  149.7658  140.5812 C   0  0  0  0  0  0  0  0  0  0  0  0
  139.1788  150.4012  143.1353 C   0  0  0  0  0  0  0  0  0  0  0  0
  138.2249  150.9731  144.0852 C   0  0  0  0  0  0  0  0  0  0  0  0
  136.4855  150.1086  143.0259 C   0  0  0  0  0  0  0  0  0  0  0  0
  139.6856  149.9021  138.1886 C   0  0  0  0  0  0  0  0  0  0  0  0
  137.4177  149.7816  139.3599 C   0  0  0  0  0  0  0  0  0  0  0  0
  136.9994  150.6112  144.0983 C   0  0  0  0  0  0  0  0  0  0  0  0
  136.1974  151.0421  145.2449 C   0  0  0  0  0  0  0  0  0  0  0  0
  135.1779  151.9583  145.0536 C   0  0  0  0  0  0  0  0  0  0  0  0
  135.1811  153.0404  145.9594 C   0  0  0  0  0  0  0  0  0  0  0  0
  1  2  2  0
  1  3  1  0
  3  4  1  0
  4  5  2  0
  3  6  1  0
  6  7  2  0
  4  8  1  0
  2  9  1  0
  2 10  1  0
  5 10  1  0
  7 11  1  0
  8 11  2  0
 11 12  1  0
 12 13  1  0
 13 14  1  0
M  END
$$$$
