
     RDKit          3D

 14 15  0  0  0  0  0  0  0  0999 V2000
  139.5348  150.8906  142.2305 C   0  0  0  0  0  0  0  0  0  0  0  0
  139.0139  150.3976  141.0574 C   0  0  0  0  0  0  0  0  0  0  0  0
  138.6965  150.9489  143.4028 C   0  0  0  0  0  0  0  0  0  0  0  0
  137.7130  149.9460  141.0427 C   0  0  0  0  0  0  0  0  0  0  0  0
  137.5183  150.9374  143.4785 C   0  0  0  0  0  0  0  0  0  0  0  0
  136.6733  151.1274  144.6812 C   0  0  0  0  0  0  0  0  0  0  0  0
  139.8472  150.3901  139.8637 C   0  0  0  0  0  0  0  0  0  0  0  0
  136.7200  150.2063  141.8846 C   0  0  0  0  0  0  0  0  0  0  0  0
  141.2316  150.2438  139.9961 C   0  0  0  0  0  0  0  0  0  0  0  0
  135.2514  149.9903  141.0543 Cl  0  0  0  0  0  0  0  0  0  0  0  0
  136.5727  150.7093  143.1113 C   0  0  0  0  0  0  0  0  0  0  0  0
  135.3720  151.5946  145.0093 C   0  0  0  0  0  0  0  0  0  0  0  0
  139.3428  150.5705  138.9011 O   0  0  0  0  0  0  0  0  0  0  0  0
  135.3045  152.0959  146.3689 C   0  0  0  0  0  0  0  0  0  0  0  0
  1  2  2  0
  1  3  1  0
  2  4  1  0
  3  5  2  0
  5  6  1  0
  2  7  1  0
  4  8  2  0
  7  9  1  0
  8 10  1  0
  5 11  1  0
  6 11  1  0
  8 11  1  0
  6 12  1  0
  7 13  2  0
 12 14  1  0
M  END
$$$$
