
     RDKit          3D

  9  9  0  0  0  0  0  0  0  0999 V2000
  139.0004  149.7631  140.3649 C   0  0  0  0  0  0  0  0  0  0  0  0
  138.7142  149.5451  139.1249 C   0  0  0  0  0  0  0  0  0  0  0  0
  138.1856  150.1072  141.2839 C   0  0  0  0  0  0  0  0  0  0  0  0
  137.3213  149.5926  138.6821 C   0  0  0  0  0  0  0  0  0  0  0  0
  136.9821  149.1480  137.4604 O   0  0  0  0  0  0  0  0  0  0  0  0
  136.4845  149.6051  139.7308 C   0  0  0  0  0  0  0  0  0  0  0  0
  135.0210  149.6522  139.5840 O   0  0  0  0  0  0  0  0  0  0  0  0
  136.8788  150.0390  141.1240 C   0  0  0  0  0  0  0  0  0  0  0  0
  138.6937  150.7422  142.8313 Cl  0  0  0  0  0  0  0  0  0  0  0  0
  1  2  2  0
  1  3  1  0
  2  4  1  0
  4  5  1  0
  4  6  2  0
  6  7  1  0
  3  8  2  0
  6  8  1  0
  3  9  1  0
M  END
$$$$
