
     RDKit          3D

 14 15  0  0  0  0  0  0  0  0999 V2000
  139.5348  150.8906  142.2305 C   0  0  0  0  0  0  0  0  0  0  0  0
  139.0139  150.3976  141.0574 C   0  0  0  0  0  0  0  0  0  0  0  0
  138.6965  150.9489  143.4028 C   0  0  0  0  0  0  0  0  0  0  0  0
  137.7130  149.9460  141.0427 C   0  0  0  0  0  0  0  0  0  0  0  0
  137.5183  150.9374  143.4785 C   0  0  0  0  0  0  0  0  0  0  0  0
  136.6733  151.1274  144.6812 C   0  0  0  0  0  0  0  0  0  0  0  0
  139.8472  150.3901  139.8637 C   0  0  0  0  0  0  0  0  0  0  0  0
  136.7200  150.2063  141.8846 C   0  0  0  0  0  0  0  0  0  0  0  0
  136.4930  150.6203  143.0434 C   0  0  0  0  0  0  0  0  0  0  0  0
  139.3609  150.4992  138.6511 C   0  0  0  0  0  0  0  0  0  0  0  0
  135.4250  151.4126  144.6139 C   0  0  0  0  0  0  0  0  0  0  0  0
  141.0667  150.6098  140.2321 C   0  0  0  0  0  0  0  0  0  0  0  0
  134.4865  151.8878  145.6639 C   0  0  0  0  0  0  0  0  0  0  0  0
  135.1653  150.9239  143.4539 N   0  0  0  0  0  0  0  0  0  0  0  0
  1  2  2  0
  1  3  1  0
  2  4  1  0
  3  5  2  0
  5  6  1  0
  2  7  1  0
  4  8  2  0
  5  9  1  0
  8  9  1  0
  7 10  1  0
  6 11  2  0
  7 12  2  0
 11 13  1  0
  9 14  2  0
 11 14  1  0
M  END
$$$$
