
     RDKit          3D

  9  9  0  0  0  0  0  0  0  0999 V2000
  138.7236  151.5756  143.3190 C   0  0  0  0  0  0  0  0  0  0  0  0
  137.9189  152.3262  143.7538 C   0  0  0  0  0  0  0  0  0  0  0  0
  136.7533  151.7852  144.4573 C   0  0  0  0  0  0  0  0  0  0  0  0
  138.5774  150.7784  142.3589 C   0  0  0  0  0  0  0  0  0  0  0  0
  137.2450  150.1180  142.4701 C   0  0  0  0  0  0  0  0  0  0  0  0
  135.9443  152.3333  145.4209 C   0  0  0  0  0  0  0  0  0  0  0  0
  134.9004  151.7717  145.7686 C   0  0  0  0  0  0  0  0  0  0  0  0
  136.7565  149.3103  141.4379 C   0  0  0  0  0  0  0  0  0  0  0  0
  136.3979  150.5815  143.5234 C   0  0  0  0  0  0  0  0  0  0  0  0
  1  2  1  0
  2  3  2  0
  1  4  2  0
  4  5  1  0
  3  6  1  0
  6  7  2  0
  5  8  1  0
  3  9  1  0
  5  9  2  0
M  END
$$$$
