
     RDKit          3D

 14 15  0  0  0  0  0  0  0  0999 V2000
  140.3036  150.2148  139.4783 Cl  0  0  0  0  0  0  0  0  0  0  0  0
  138.6783  150.1860  140.5319 C   0  0  0  0  0  0  0  0  0  0  0  0
  137.6385  149.3831  140.0945 C   0  0  0  0  0  0  0  0  0  0  0  0
  138.8668  150.7183  141.4516 C   0  0  0  0  0  0  0  0  0  0  0  0
  138.3194  150.9395  142.2987 C   0  0  0  0  0  0  0  0  0  0  0  0
  136.9007  150.1342  142.2766 C   0  0  0  0  0  0  0  0  0  0  0  0
  136.0346  150.4104  143.3393 C   0  0  0  0  0  0  0  0  0  0  0  0
  137.4083  148.7821  138.9116 C   0  0  0  0  0  0  0  0  0  0  0  0
  136.4724  151.2971  144.2937 C   0  0  0  0  0  0  0  0  0  0  0  0
  136.0775  151.4989  145.5085 C   0  0  0  0  0  0  0  0  0  0  0  0
  136.5563  149.5242  141.0841 C   0  0  0  0  0  0  0  0  0  0  0  0
  136.3622  151.0164  146.5434 C   0  0  0  0  0  0  0  0  0  0  0  0
  135.2990  152.8451  145.6295 C   0  0  0  0  0  0  0  0  0  0  0  0
  138.2888  151.5914  143.7205 C   0  0  0  0  0  0  0  0  0  0  0  0
  1  2  1  0
  2  3  2  0
  2  4  1  0
  4  5  2  0
  5  6  1  0
  6  7  1  0
  3  8  1  0
  7  9  1  0
  9 10  1  0
  3 11  1  0
  6 11  2  0
 10 12  2  0
 10 13  1  0
  5 14  1  0
  9 14  1  0
M  END
$$$$
