
     RDKit          3D

 14 15  0  0  0  0  0  0  0  0999 V2000
  140.3036  150.2148  139.4783 Cl  0  0  0  0  0  0  0  0  0  0  0  0
  138.6783  150.1860  140.5319 C   0  0  0  0  0  0  0  0  0  0  0  0
  137.6385  149.3831  140.0945 C   0  0  0  0  0  0  0  0  0  0  0  0
  138.8668  150.7183  141.4516 C   0  0  0  0  0  0  0  0  0  0  0  0
  138.3194  150.9395  142.2987 C   0  0  0  0  0  0  0  0  0  0  0  0
  136.9007  150.1342  142.2766 C   0  0  0  0  0  0  0  0  0  0  0  0
  136.0346  150.4104  143.3393 C   0  0  0  0  0  0  0  0  0  0  0  0
  137.4083  148.7821  138.9116 C   0  0  0  0  0  0  0  0  0  0  0  0
  136.2303  150.8330  144.4742 C   0  0  0  0  0  0  0  0  0  0  0  0
  137.5716  151.4791  144.6535 C   0  0  0  0  0  0  0  0  0  0  0  0
  135.3288  151.1168  145.5435 C   0  0  0  0  0  0  0  0  0  0  0  0
  136.5492  149.5047  141.0961 C   0  0  0  0  0  0  0  0  0  0  0  0
  138.2643  151.5725  143.4363 N   0  0  0  0  0  0  0  0  0  0  0  0
  135.4278  151.5372  146.6287 C   0  0  0  0  0  0  0  0  0  0  0  0
  1  2  1  0
  2  3  2  0
  2  4  1  0
  4  5  2  0
  5  6  1  0
  6  7  1  0
  3  8  1  0
  7  9  2  0
  9 10  1  0
  9 11  1  0
  3 12  1  0
  6 12  2  0
  5 13  1  0
 10 13  2  0
 11 14  2  0
M  END
$$$$
