
     RDKit          3D

 14 15  0  0  0  0  0  0  0  0999 V2000
  138.9705  151.3124  142.5681 C   0  0  0  0  0  0  0  0  0  0  0  0
  138.6057  152.0894  143.2653 C   0  0  0  0  0  0  0  0  0  0  0  0
  137.6600  151.8349  144.0467 C   0  0  0  0  0  0  0  0  0  0  0  0
  139.9939  151.3511  141.4314 C   0  0  0  0  0  0  0  0  0  0  0  0
  137.4795  150.6675  144.8972 C   0  0  0  0  0  0  0  0  0  0  0  0
  139.6568  150.7243  140.2644 C   0  0  0  0  0  0  0  0  0  0  0  0
  138.5004  150.0428  140.1974 C   0  0  0  0  0  0  0  0  0  0  0  0
  137.5686  149.8234  141.3807 C   0  0  0  0  0  0  0  0  0  0  0  0
  140.5888  150.6785  139.1831 C   0  0  0  0  0  0  0  0  0  0  0  0
  138.2287  149.6069  138.9174 C   0  0  0  0  0  0  0  0  0  0  0  0
  140.1523  150.1543  138.0336 C   0  0  0  0  0  0  0  0  0  0  0  0
  138.0463  150.1769  142.2396 C   0  0  0  0  0  0  0  0  0  0  0  0
  139.1277  149.6429  137.9365 C   0  0  0  0  0  0  0  0  0  0  0  0
  136.9340  150.4993  146.1322 C   0  0  0  0  0  0  0  0  0  0  0  0
  1  2  2  3
  2  3  1  0
  1  4  1  0
  3  5  2  3
  4  6  2  0
  6  7  1  0
  7  8  1  0
  6  9  1  0
  7 10  2  0
  9 11  1  0
  1 12  1  0
  8 12  2  0
 10 13  1  0
 11 13  2  0
  5 14  1  0
M  END
$$$$
