
     RDKit          3D

 14 15  0  0  0  0  0  0  0  0999 V2000
  139.3427  149.9935  140.5880 C   0  0  0  0  0  0  0  0  0  0  0  0
  138.9528  149.9224  139.3656 C   0  0  0  0  0  0  0  0  0  0  0  0
  138.6122  150.1102  141.6416 C   0  0  0  0  0  0  0  0  0  0  0  0
  137.1910  149.8704  141.8331 C   0  0  0  0  0  0  0  0  0  0  0  0
  136.5134  149.7658  140.5812 C   0  0  0  0  0  0  0  0  0  0  0  0
  139.1788  150.4012  143.1353 C   0  0  0  0  0  0  0  0  0  0  0  0
  138.2249  150.9731  144.0852 C   0  0  0  0  0  0  0  0  0  0  0  0
  139.6664  149.8788  138.1669 C   0  0  0  0  0  0  0  0  0  0  0  0
  136.6533  150.3823  143.0155 C   0  0  0  0  0  0  0  0  0  0  0  0
  137.4059  149.8333  139.3614 C   0  0  0  0  0  0  0  0  0  0  0  0
  137.0396  150.7578  144.0900 C   0  0  0  0  0  0  0  0  0  0  0  0
  136.1418  151.0531  145.3423 C   0  0  0  0  0  0  0  0  0  0  0  0
  135.2159  152.0985  145.1651 C   0  0  0  0  0  0  0  0  0  0  0  0
  135.4884  153.1979  144.9105 C   0  0  0  0  0  0  0  0  0  0  0  0
  1  2  2  0
  1  3  1  0
  3  4  1  0
  4  5  2  0
  3  6  1  0
  6  7  2  0
  2  8  1  0
  4  9  1  0
  2 10  1  0
  5 10  1  0
  7 11  1  0
  9 11  2  0
 11 12  1  0
 12 13  1  0
 13 14  2  0
M  END
$$$$
