
     RDKit          3D

  9  9  0  0  0  0  0  0  0  0999 V2000
  138.7090  151.1469  142.6269 C   0  0  0  0  0  0  0  0  0  0  0  0
  138.5260  151.9370  143.5114 C   0  0  0  0  0  0  0  0  0  0  0  0
  137.3819  151.6579  144.3963 C   0  0  0  0  0  0  0  0  0  0  0  0
  139.7051  151.1184  141.6077 C   0  0  0  0  0  0  0  0  0  0  0  0
  136.7557  152.5772  145.3074 C   0  0  0  0  0  0  0  0  0  0  0  0
  139.6288  150.4580  140.3315 C   0  0  0  0  0  0  0  0  0  0  0  0
  138.4571  149.6004  140.4454 C   0  0  0  0  0  0  0  0  0  0  0  0
  137.7812  150.0618  142.1713 C   0  0  0  0  0  0  0  0  0  0  0  0
  135.4722  152.3347  145.7973 C   0  0  0  0  0  0  0  0  0  0  0  0
  1  2  1  0
  2  3  2  3
  1  4  1  0
  3  5  1  0
  4  6  2  0
  6  7  1  0
  1  8  2  0
  7  8  1  0
  5  9  1  0
M  END
$$$$
