
     RDKit          3D

 14 15  0  0  0  0  0  0  0  0999 V2000
  139.5348  150.8906  142.2305 C   0  0  0  0  0  0  0  0  0  0  0  0
  139.0139  150.3976  141.0574 C   0  0  0  0  0  0  0  0  0  0  0  0
  138.6965  150.9489  143.4028 C   0  0  0  0  0  0  0  0  0  0  0  0
  137.7130  149.9460  141.0427 C   0  0  0  0  0  0  0  0  0  0  0  0
  137.5183  150.9374  143.4785 C   0  0  0  0  0  0  0  0  0  0  0  0
  136.6733  151.1274  144.6812 C   0  0  0  0  0  0  0  0  0  0  0  0
  139.8472  150.3901  139.8637 C   0  0  0  0  0  0  0  0  0  0  0  0
  136.7200  150.2063  141.8846 C   0  0  0  0  0  0  0  0  0  0  0  0
  136.4930  150.6203  143.0434 C   0  0  0  0  0  0  0  0  0  0  0  0
  141.2312  150.2837  140.0282 C   0  0  0  0  0  0  0  0  0  0  0  0
  135.4331  151.4236  144.6189 C   0  0  0  0  0  0  0  0  0  0  0  0
  139.4093  150.5415  138.8486 O   0  0  0  0  0  0  0  0  0  0  0  0
  134.4724  152.0228  145.6104 C   0  0  0  0  0  0  0  0  0  0  0  0
  135.3733  150.9862  143.6496 N   0  0  0  0  0  0  0  0  0  0  0  0
  1  2  2  0
  1  3  1  0
  2  4  1  0
  3  5  2  0
  5  6  1  0
  2  7  1  0
  4  8  2  0
  5  9  1  0
  8  9  1  0
  7 10  1  0
  6 11  1  0
  7 12  2  0
 11 13  1  0
  9 14  1  0
 11 14  2  0
M  END
$$$$
