
     RDKit          3D

 14 15  0  0  0  0  0  0  0  0999 V2000
  140.8778  150.5419  139.7337 Cl  0  0  0  0  0  0  0  0  0  0  0  0
  138.9614  150.5329  140.4448 C   0  0  0  0  0  0  0  0  0  0  0  0
  138.2154  149.5089  139.9489 C   0  0  0  0  0  0  0  0  0  0  0  0
  139.1215  151.1800  141.6231 C   0  0  0  0  0  0  0  0  0  0  0  0
  138.0837  150.9004  142.5999 C   0  0  0  0  0  0  0  0  0  0  0  0
  137.1000  149.9215  142.1731 C   0  0  0  0  0  0  0  0  0  0  0  0
  135.9904  149.8133  143.1128 C   0  0  0  0  0  0  0  0  0  0  0  0
  136.2020  150.8803  144.1689 C   0  0  0  0  0  0  0  0  0  0  0  0
  137.0013  149.3666  140.8539 C   0  0  0  0  0  0  0  0  0  0  0  0
  135.7607  151.0885  145.3687 C   0  0  0  0  0  0  0  0  0  0  0  0
  137.9131  151.4801  143.9167 C   0  0  0  0  0  0  0  0  0  0  0  0
  135.6344  152.1802  145.9343 C   0  0  0  0  0  0  0  0  0  0  0  0
  136.3302  153.3107  145.6544 O   0  0  0  0  0  0  0  0  0  0  0  0
  134.7340  152.5735  146.9735 C   0  0  0  0  0  0  0  0  0  0  0  0
  1  2  1  0
  2  3  2  0
  2  4  1  0
  4  5  2  0
  5  6  1  0
  6  7  1  0
  7  8  1  0
  3  9  1  0
  6  9  2  0
  8 10  1  0
  5 11  1  0
  8 11  1  0
 10 12  1  0
 12 13  2  0
 12 14  1  0
M  END
$$$$
