
     RDKit          3D

 14 15  0  0  0  0  0  0  0  0999 V2000
  138.7247  151.5764  143.3183 C   0  0  0  0  0  0  0  0  0  0  0  0
  137.9184  152.3259  143.7535 C   0  0  0  0  0  0  0  0  0  0  0  0
  136.7531  151.7836  144.4567 C   0  0  0  0  0  0  0  0  0  0  0  0
  136.8362  150.4414  144.7132 C   0  0  0  0  0  0  0  0  0  0  0  0
  138.7265  150.3748  143.0129 C   0  0  0  0  0  0  0  0  0  0  0  0
  135.9827  149.8124  145.6763 C   0  0  0  0  0  0  0  0  0  0  0  0
  139.5974  149.5764  142.2297 C   0  0  0  0  0  0  0  0  0  0  0  0
  139.7449  150.2202  140.9097 C   0  0  0  0  0  0  0  0  0  0  0  0
  140.1461  149.5005  139.7657 C   0  0  0  0  0  0  0  0  0  0  0  0
  135.9258  152.7276  145.1338 C   0  0  0  0  0  0  0  0  0  0  0  0
  140.6245  150.3654  138.7025 C   0  0  0  0  0  0  0  0  0  0  0  0
  137.6519  149.6980  143.9357 N   0  0  0  0  0  0  0  0  0  0  0  0
  134.6126  152.3082  145.7645 C   0  0  0  0  0  0  0  0  0  0  0  0
  134.8545  150.9374  146.3494 C   0  0  0  0  0  0  0  0  0  0  0  0
  1  2  1  0
  2  3  2  0
  3  4  1  0
  1  5  2  0
  4  6  1  0
  5  7  1  0
  7  8  1  0
  8  9  1  0
  3 10  1  0
  9 11  1  0
  4 12  2  0
  5 12  1  0
 10 13  1  0
  6 14  1  0
 13 14  1  0
M  END
$$$$
