
     RDKit          3D

 14 15  0  0  0  0  0  0  0  0999 V2000
  138.9699  151.3138  142.5680 C   0  0  0  0  0  0  0  0  0  0  0  0
  138.6028  152.0884  143.2652 C   0  0  0  0  0  0  0  0  0  0  0  0
  137.6691  151.8112  144.0575 C   0  0  0  0  0  0  0  0  0  0  0  0
  136.5758  152.7066  144.5957 C   0  0  0  0  0  0  0  0  0  0  0  0
  139.8386  151.3584  141.3360 C   0  0  0  0  0  0  0  0  0  0  0  0
  139.5471  150.6838  140.2459 C   0  0  0  0  0  0  0  0  0  0  0  0
  135.4857  152.3771  145.3632 C   0  0  0  0  0  0  0  0  0  0  0  0
  138.3934  149.9290  140.2900 C   0  0  0  0  0  0  0  0  0  0  0  0
  135.5440  150.9337  145.7078 C   0  0  0  0  0  0  0  0  0  0  0  0
  137.2401  150.3968  144.5252 C   0  0  0  0  0  0  0  0  0  0  0  0
  138.3405  150.0159  142.2674 C   0  0  0  0  0  0  0  0  0  0  0  0
  137.8855  149.4070  141.3690 C   0  0  0  0  0  0  0  0  0  0  0  0
  134.4521  150.6402  146.6940 C   0  0  0  0  0  0  0  0  0  0  0  0
  136.3881  150.0310  145.2206 C   0  0  0  0  0  0  0  0  0  0  0  0
  1  2  2  3
  2  3  1  0
  3  4  1  0
  1  5  1  0
  5  6  2  0
  4  7  2  0
  6  8  1  0
  7  9  1  0
  3 10  2  0
  1 11  1  0
  8 12  2  0
 11 12  1  0
  9 13  1  0
  9 14  2  0
 10 14  1  0
M  END
$$$$
