
     RDKit          3D

  9  9  0  0  0  0  0  0  0  0999 V2000
  138.9705  151.3124  142.5681 C   0  0  0  0  0  0  0  0  0  0  0  0
  138.6057  152.0894  143.2653 C   0  0  0  0  0  0  0  0  0  0  0  0
  137.6600  151.8349  144.0467 C   0  0  0  0  0  0  0  0  0  0  0  0
  136.5812  152.7548  144.5687 C   0  0  0  0  0  0  0  0  0  0  0  0
  138.3017  149.9409  142.5892 C   0  0  0  0  0  0  0  0  0  0  0  0
  137.1653  150.3973  144.2566 C   0  0  0  0  0  0  0  0  0  0  0  0
  137.5806  149.5054  143.5641 C   0  0  0  0  0  0  0  0  0  0  0  0
  135.3507  152.4338  145.0840 C   0  0  0  0  0  0  0  0  0  0  0  0
  134.6763  153.4126  145.8551 C   0  0  0  0  0  0  0  0  0  0  0  0
  1  2  2  0
  2  3  1  0
  3  4  1  0
  1  5  1  0
  3  6  2  0
  5  7  2  0
  6  7  1  0
  4  8  1  0
  8  9  1  0
M  END
$$$$
