
     RDKit          3D

 14 15  0  0  0  0  0  0  0  0999 V2000
  140.3036  150.2147  139.4796 Cl  0  0  0  0  0  0  0  0  0  0  0  0
  138.6769  150.1876  140.5325 C   0  0  0  0  0  0  0  0  0  0  0  0
  137.6372  149.3844  140.0947 C   0  0  0  0  0  0  0  0  0  0  0  0
  138.7726  150.9306  141.6506 C   0  0  0  0  0  0  0  0  0  0  0  0
  137.6840  150.8870  142.5431 C   0  0  0  0  0  0  0  0  0  0  0  0
  136.5884  150.1098  142.1532 C   0  0  0  0  0  0  0  0  0  0  0  0
  137.6052  148.7876  138.8600 C   0  0  0  0  0  0  0  0  0  0  0  0
  137.7623  151.6047  143.8687 C   0  0  0  0  0  0  0  0  0  0  0  0
  135.4489  150.3378  143.1346 C   0  0  0  0  0  0  0  0  0  0  0  0
  136.6716  151.5959  144.6651 C   0  0  0  0  0  0  0  0  0  0  0  0
  136.4682  149.5499  140.9304 C   0  0  0  0  0  0  0  0  0  0  0  0
  136.8320  152.3600  145.9560 C   0  0  0  0  0  0  0  0  0  0  0  0
  135.6118  152.9405  146.4705 C   0  0  0  0  0  0  0  0  0  0  0  0
  135.6375  151.1353  144.3329 C   0  0  0  0  0  0  0  0  0  0  0  0
  1  2  1  0
  2  3  1  0
  2  4  2  0
  4  5  1  0
  5  6  2  0
  3  7  1  0
  5  8  1  0
  6  9  1  0
  8 10  2  0
  3 11  2  0
  6 11  1  0
 10 12  1  0
 12 13  2  0
  9 14  2  0
 10 14  1  0
M  END
$$$$
