
     RDKit          3D

 14 16  0  0  0  0  0  0  0  0999 V2000
  138.9699  151.3138  142.5680 C   0  0  0  0  0  0  0  0  0  0  0  0
  138.6028  152.0884  143.2652 C   0  0  0  0  0  0  0  0  0  0  0  0
  137.4868  151.7382  144.1979 C   0  0  0  0  0  0  0  0  0  0  0  0
  139.9964  151.3955  141.4280 C   0  0  0  0  0  0  0  0  0  0  0  0
  139.7128  150.7435  140.2231 C   0  0  0  0  0  0  0  0  0  0  0  0
  137.0980  150.3607  143.9160 C   0  0  0  0  0  0  0  0  0  0  0  0
  138.4640  149.8986  142.0939 C   0  0  0  0  0  0  0  0  0  0  0  0
  138.9093  149.6851  140.2985 C   0  0  0  0  0  0  0  0  0  0  0  0
  136.7346  152.3723  145.2066 C   0  0  0  0  0  0  0  0  0  0  0  0
  136.8762  153.6464  145.4225 C   0  0  0  0  0  0  0  0  0  0  0  0
  137.5573  149.2804  142.9510 N   0  0  0  0  0  0  0  0  0  0  0  0
  135.7104  151.7317  145.9116 C   0  0  0  0  0  0  0  0  0  0  0  0
  134.9708  152.5951  146.5000 C   0  0  0  0  0  0  0  0  0  0  0  0
  135.4900  153.7336  146.5070 C   0  0  0  0  0  0  0  0  0  0  0  0
  1  2  1  0
  2  3  2  0
  1  4  1  0
  4  5  2  0
  3  6  1  0
  1  7  2  0
  5  8  1  0
  7  8  1  0
  3  9  1  0
  9 10  1  0
  6 11  2  0
  7 11  1  0
  9 12  2  0
 12 13  1  0
 10 14  1  0
 13 14  1  0
M  END
$$$$
