
     RDKit          3D

 14 15  0  0  0  0  0  0  0  0999 V2000
  139.5547  150.5070  140.4456 C   0  0  0  0  0  0  0  0  0  0  0  0
  139.2168  150.0153  139.3732 C   0  0  0  0  0  0  0  0  0  0  0  0
  138.8576  150.3067  141.5853 C   0  0  0  0  0  0  0  0  0  0  0  0
  137.9795  149.2997  139.2377 C   0  0  0  0  0  0  0  0  0  0  0  0
  139.3339  150.9307  142.8848 C   0  0  0  0  0  0  0  0  0  0  0  0
  138.3147  151.4954  143.6107 C   0  0  0  0  0  0  0  0  0  0  0  0
  137.0055  151.1295  143.2688 C   0  0  0  0  0  0  0  0  0  0  0  0
  137.4982  149.8915  141.4959 C   0  0  0  0  0  0  0  0  0  0  0  0
  135.9455  151.6889  144.0869 C   0  0  0  0  0  0  0  0  0  0  0  0
  137.4569  148.8329  138.0637 C   0  0  0  0  0  0  0  0  0  0  0  0
  136.6325  150.2670  142.2227 C   0  0  0  0  0  0  0  0  0  0  0  0
  137.0106  149.0788  140.5390 N   0  0  0  0  0  0  0  0  0  0  0  0
  136.0891  152.1358  145.1862 N   0  0  0  0  0  0  0  0  0  0  0  0
  135.0744  152.7674  145.9394 C   0  0  0  0  0  0  0  0  0  0  0  0
  1  2  2  0
  1  3  1  0
  2  4  1  0
  3  5  1  0
  5  6  2  0
  6  7  1  0
  3  8  2  0
  7  9  1  0
  4 10  1  0
  7 11  2  0
  8 11  1  0
  4 12  2  0
  8 12  1  0
  9 13  1  0
 13 14  1  0
M  END
$$$$
