
     RDKit          3D

 14 15  0  0  0  0  0  0  0  0999 V2000
  140.8778  150.5419  139.7337 Cl  0  0  0  0  0  0  0  0  0  0  0  0
  138.9614  150.5329  140.4448 C   0  0  0  0  0  0  0  0  0  0  0  0
  138.2154  149.5089  139.9489 C   0  0  0  0  0  0  0  0  0  0  0  0
  139.1215  151.1800  141.6231 C   0  0  0  0  0  0  0  0  0  0  0  0
  138.4409  150.9839  142.4827 C   0  0  0  0  0  0  0  0  0  0  0  0
  137.3041  149.9252  142.2693 C   0  0  0  0  0  0  0  0  0  0  0  0
  136.3910  149.8005  143.3483 C   0  0  0  0  0  0  0  0  0  0  0  0
  136.8248  150.0544  144.6651 C   0  0  0  0  0  0  0  0  0  0  0  0
  137.1159  149.3927  140.9659 C   0  0  0  0  0  0  0  0  0  0  0  0
  136.7528  151.4306  144.9962 C   0  0  0  0  0  0  0  0  0  0  0  0
  137.5242  152.3020  144.4243 C   0  0  0  0  0  0  0  0  0  0  0  0
  138.4339  151.8315  143.7243 C   0  0  0  0  0  0  0  0  0  0  0  0
  135.8911  151.9874  146.0726 C   0  0  0  0  0  0  0  0  0  0  0  0
  135.3787  153.2215  145.9895 C   0  0  0  0  0  0  0  0  0  0  0  0
  1  2  1  0
  2  3  2  0
  2  4  1  0
  4  5  2  0
  5  6  1  0
  6  7  1  0
  7  8  1  0
  3  9  1  0
  6  9  2  0
  8 10  1  0
 10 11  1  0
  5 12  1  0
 11 12  1  0
 10 13  2  3
 13 14  1  0
M  END
$$$$
