
     RDKit          3D

 14 14  0  0  0  0  0  0  0  0999 V2000
  138.9699  151.3138  142.5680 C   0  0  0  0  0  0  0  0  0  0  0  0
  138.6028  152.0884  143.2652 C   0  0  0  0  0  0  0  0  0  0  0  0
  137.6691  151.8112  144.0575 C   0  0  0  0  0  0  0  0  0  0  0  0
  136.5758  152.7066  144.5957 C   0  0  0  0  0  0  0  0  0  0  0  0
  135.5865  152.4520  145.5239 C   0  0  0  0  0  0  0  0  0  0  0  0
  139.9119  151.4259  141.3573 C   0  0  0  0  0  0  0  0  0  0  0  0
  135.6786  150.9924  145.8717 C   0  0  0  0  0  0  0  0  0  0  0  0
  137.2821  150.4143  144.6542 C   0  0  0  0  0  0  0  0  0  0  0  0
  138.3181  149.5410  144.1306 O   0  0  0  0  0  0  0  0  0  0  0  0
  139.7259  150.5519  140.2474 C   0  0  0  0  0  0  0  0  0  0  0  0
  138.5869  149.8231  140.2429 C   0  0  0  0  0  0  0  0  0  0  0  0
  134.6606  150.7198  147.0024 C   0  0  0  0  0  0  0  0  0  0  0  0
  136.3791  149.9420  145.5320 C   0  0  0  0  0  0  0  0  0  0  0  0
  138.2171  149.2388  138.9918 C   0  0  0  0  0  0  0  0  0  0  0  0
  1  2  2  3
  2  3  1  0
  3  4  1  0
  4  5  2  0
  1  6  1  0
  5  7  1  0
  3  8  2  0
  8  9  1  0
  6 10  2  3
 10 11  1  0
  7 12  1  0
  7 13  2  0
  8 13  1  0
 11 14  1  0
M  END
$$$$
