
     RDKit          3D

 14 14  0  0  0  0  0  0  0  0999 V2000
  138.7247  151.5764  143.3183 C   0  0  0  0  0  0  0  0  0  0  0  0
  137.9184  152.3259  143.7535 C   0  0  0  0  0  0  0  0  0  0  0  0
  136.7531  151.7836  144.4567 C   0  0  0  0  0  0  0  0  0  0  0  0
  136.8362  150.4414  144.7132 C   0  0  0  0  0  0  0  0  0  0  0  0
  138.7265  150.3748  143.0129 C   0  0  0  0  0  0  0  0  0  0  0  0
  139.6213  149.6149  142.1899 C   0  0  0  0  0  0  0  0  0  0  0  0
  137.7198  149.6394  143.8762 C   0  0  0  0  0  0  0  0  0  0  0  0
  135.7877  152.5653  145.1966 C   0  0  0  0  0  0  0  0  0  0  0  0
  135.8578  153.9589  145.3460 C   0  0  0  0  0  0  0  0  0  0  0  0
  139.4800  149.9991  140.7663 C   0  0  0  0  0  0  0  0  0  0  0  0
  140.3208  149.4798  139.7529 C   0  0  0  0  0  0  0  0  0  0  0  0
  140.1319  150.0477  138.3768 C   0  0  0  0  0  0  0  0  0  0  0  0
  134.9621  151.9743  145.9747 C   0  0  0  0  0  0  0  0  0  0  0  0
  133.8739  152.5847  146.4230 C   0  0  0  0  0  0  0  0  0  0  0  0
  1  2  1  0
  2  3  2  0
  3  4  1  0
  1  5  2  0
  5  6  1  0
  4  7  2  0
  5  7  1  0
  3  8  1  0
  8  9  1  0
  6 10  1  0
 10 11  1  0
 11 12  1  0
  8 13  2  3
 13 14  1  0
M  END
$$$$
