
     RDKit          3D

 14 16  0  0  0  0  0  0  0  0999 V2000
  140.8778  150.5419  139.7337 Cl  0  0  0  0  0  0  0  0  0  0  0  0
  138.9614  150.5329  140.4448 C   0  0  0  0  0  0  0  0  0  0  0  0
  138.2154  149.5089  139.9489 C   0  0  0  0  0  0  0  0  0  0  0  0
  139.1215  151.1800  141.6231 C   0  0  0  0  0  0  0  0  0  0  0  0
  138.0837  150.9004  142.5999 C   0  0  0  0  0  0  0  0  0  0  0  0
  137.1000  149.9215  142.1731 C   0  0  0  0  0  0  0  0  0  0  0  0
  135.9904  149.8133  143.1128 C   0  0  0  0  0  0  0  0  0  0  0  0
  136.2020  150.8803  144.1689 C   0  0  0  0  0  0  0  0  0  0  0  0
  137.4491  151.3365  144.2920 C   0  0  0  0  0  0  0  0  0  0  0  0
  136.9723  149.4378  140.7211 C   0  0  0  0  0  0  0  0  0  0  0  0
  135.9194  150.9617  145.6569 C   0  0  0  0  0  0  0  0  0  0  0  0
  135.3525  152.2702  146.1765 C   0  0  0  0  0  0  0  0  0  0  0  0
  135.3107  152.7682  147.2532 C   0  0  0  0  0  0  0  0  0  0  0  0
  135.2717  152.3923  144.8832 C   0  0  0  0  0  0  0  0  0  0  0  0
  1  2  1  0
  2  3  2  0
  2  4  1  0
  4  5  2  0
  5  6  1  0
  6  7  1  0
  7  8  1  0
  5  9  1  0
  8  9  1  0
  3 10  1  0
  6 10  2  0
  8 11  1  0
 11 12  1  0
 12 13  1  0
  8 14  1  0
 12 14  1  0
M  END
$$$$
