
     RDKit          3D

 14 15  0  0  0  0  0  0  0  0999 V2000
  140.3036  150.2147  139.4796 Cl  0  0  0  0  0  0  0  0  0  0  0  0
  138.6769  150.1876  140.5325 C   0  0  0  0  0  0  0  0  0  0  0  0
  137.6372  149.3844  140.0947 C   0  0  0  0  0  0  0  0  0  0  0  0
  138.7726  150.9306  141.6506 C   0  0  0  0  0  0  0  0  0  0  0  0
  137.6840  150.8870  142.5431 C   0  0  0  0  0  0  0  0  0  0  0  0
  136.5884  150.1098  142.1532 C   0  0  0  0  0  0  0  0  0  0  0  0
  137.6052  148.7876  138.8600 C   0  0  0  0  0  0  0  0  0  0  0  0
  137.7623  151.6047  143.8687 C   0  0  0  0  0  0  0  0  0  0  0  0
  135.4489  150.3378  143.1346 C   0  0  0  0  0  0  0  0  0  0  0  0
  135.6410  151.0220  144.3224 C   0  0  0  0  0  0  0  0  0  0  0  0
  134.4601  151.1563  145.2718 C   0  0  0  0  0  0  0  0  0  0  0  0
  136.4633  149.7067  140.8550 C   0  0  0  0  0  0  0  0  0  0  0  0
  136.8184  151.6329  144.7981 C   0  0  0  0  0  0  0  0  0  0  0  0
  137.1141  152.2340  145.9578 C   0  0  0  0  0  0  0  0  0  0  0  0
  1  2  1  0
  2  3  1  0
  2  4  2  0
  4  5  1  0
  5  6  2  0
  3  7  1  0
  5  8  1  0
  6  9  1  0
  9 10  2  0
 10 11  1  0
  3 12  2  0
  6 12  1  0
  8 13  1  0
 10 13  1  0
 13 14  2  0
M  END
$$$$
