
     RDKit          3D

 10 10  0  0  0  0  0  0  0  0999 V2000
  140.3036  150.2148  139.4783 Cl  0  0  0  0  0  0  0  0  0  0  0  0
  138.6783  150.1860  140.5319 C   0  0  0  0  0  0  0  0  0  0  0  0
  137.6385  149.3831  140.0945 C   0  0  0  0  0  0  0  0  0  0  0  0
  138.8668  150.7183  141.4516 C   0  0  0  0  0  0  0  0  0  0  0  0
  138.3194  150.9395  142.2987 C   0  0  0  0  0  0  0  0  0  0  0  0
  136.9007  150.1342  142.2766 C   0  0  0  0  0  0  0  0  0  0  0  0
  136.0346  150.4104  143.3393 C   0  0  0  0  0  0  0  0  0  0  0  0
  136.1506  150.5888  144.5198 C   0  0  0  0  0  0  0  0  0  0  0  0
  136.5815  149.4958  141.0792 C   0  0  0  0  0  0  0  0  0  0  0  0
  137.4180  150.3972  145.2148 C   0  0  0  0  0  0  0  0  0  0  0  0
  1  2  1  0
  2  3  2  0
  2  4  1  0
  4  5  2  0
  5  6  1  0
  6  7  1  0
  7  8  2  3
  3  9  1  0
  6  9  2  0
  8 10  1  0
M  END
$$$$
