
     RDKit          3D

 10 11  0  0  0  0  0  0  0  0999 V2000
  138.9705  151.3124  142.5681 C   0  0  0  0  0  0  0  0  0  0  0  0
  138.6057  152.0894  143.2653 C   0  0  0  0  0  0  0  0  0  0  0  0
  137.5209  151.8314  144.2019 C   0  0  0  0  0  0  0  0  0  0  0  0
  138.4515  149.8627  142.6446 C   0  0  0  0  0  0  0  0  0  0  0  0
  137.0534  152.8828  145.0294 C   0  0  0  0  0  0  0  0  0  0  0  0
  136.9343  150.7201  144.3627 C   0  0  0  0  0  0  0  0  0  0  0  0
  135.9776  150.3860  145.3365 C   0  0  0  0  0  0  0  0  0  0  0  0
  135.8937  152.7823  145.7610 C   0  0  0  0  0  0  0  0  0  0  0  0
  135.4000  151.5234  146.0537 C   0  0  0  0  0  0  0  0  0  0  0  0
  137.4384  149.5983  143.5505 N   0  0  0  0  0  0  0  0  0  0  0  0
  1  2  2  0
  2  3  1  0
  1  4  1  0
  3  5  1  0
  3  6  2  0
  6  7  1  0
  5  8  2  0
  7  9  2  0
  8  9  1  0
  4 10  2  0
  6 10  1  0
M  END
$$$$
