
     RDKit          3D

 10 11  0  0  0  0  0  0  0  0999 V2000
  139.2621  151.0929  142.4047 C   0  0  0  0  0  0  0  0  0  0  0  0
  138.8616  152.1308  142.9039 C   0  0  0  0  0  0  0  0  0  0  0  0
  137.7831  151.8921  143.8937 C   0  0  0  0  0  0  0  0  0  0  0  0
  140.0672  150.9660  141.1527 C   0  0  0  0  0  0  0  0  0  0  0  0
  139.7978  150.5477  140.1018 C   0  0  0  0  0  0  0  0  0  0  0  0
  137.3706  150.5051  143.9911 C   0  0  0  0  0  0  0  0  0  0  0  0
  137.9864  149.5505  143.2188 C   0  0  0  0  0  0  0  0  0  0  0  0
  138.5536  149.7311  140.0424 C   0  0  0  0  0  0  0  0  0  0  0  0
  138.8751  149.8533  142.2970 C   0  0  0  0  0  0  0  0  0  0  0  0
  138.6784  149.0760  141.2531 N   0  0  0  0  0  0  0  0  0  0  0  0
  1  2  1  0
  2  3  2  0
  1  4  1  0
  4  5  2  0
  3  6  1  0
  6  7  2  0
  5  8  1  0
  1  9  2  0
  7  9  1  0
  8 10  1  0
  9 10  1  0
M  END
$$$$
