
     RDKit          3D

 10 10  0  0  0  0  0  0  0  0999 V2000
  140.3036  150.2148  139.4783 Cl  0  0  0  0  0  0  0  0  0  0  0  0
  138.6783  150.1860  140.5319 C   0  0  0  0  0  0  0  0  0  0  0  0
  137.6385  149.3831  140.0945 C   0  0  0  0  0  0  0  0  0  0  0  0
  138.8668  150.7183  141.4516 C   0  0  0  0  0  0  0  0  0  0  0  0
  137.5308  148.8049  138.7967 C   0  0  0  0  0  0  0  0  0  0  0  0
  137.9039  150.8483  142.6245 C   0  0  0  0  0  0  0  0  0  0  0  0
  136.5134  149.5452  140.9489 C   0  0  0  0  0  0  0  0  0  0  0  0
  135.2367  149.1395  140.5862 C   0  0  0  0  0  0  0  0  0  0  0  0
  136.6642  150.2522  142.2172 C   0  0  0  0  0  0  0  0  0  0  0  0
  138.0056  151.5807  143.9815 Cl  0  0  0  0  0  0  0  0  0  0  0  0
  1  2  1  0
  2  3  2  0
  2  4  1  0
  3  5  1  0
  4  6  2  0
  3  7  1  0
  7  8  1  0
  6  9  1  0
  7  9  2  0
  6 10  1  0
M  END
$$$$
