
     RDKit          3D

 10 10  0  0  0  0  0  0  0  0999 V2000
  138.7236  151.5756  143.3190 C   0  0  0  0  0  0  0  0  0  0  0  0
  137.9189  152.3262  143.7538 C   0  0  0  0  0  0  0  0  0  0  0  0
  136.7533  151.7852  144.4573 C   0  0  0  0  0  0  0  0  0  0  0  0
  136.8351  150.4435  144.7144 C   0  0  0  0  0  0  0  0  0  0  0  0
  138.6416  150.0975  143.3873 C   0  0  0  0  0  0  0  0  0  0  0  0
  135.5494  152.3437  145.0636 C   0  0  0  0  0  0  0  0  0  0  0  0
  139.6034  149.2481  142.7989 C   0  0  0  0  0  0  0  0  0  0  0  0
  137.8590  149.6012  144.1647 N   0  0  0  0  0  0  0  0  0  0  0  0
  134.7351  151.9135  145.8671 C   0  0  0  0  0  0  0  0  0  0  0  0
  135.3996  153.7201  144.6376 O   0  0  0  0  0  0  0  0  0  0  0  0
  1  2  1  0
  2  3  2  0
  3  4  1  0
  1  5  2  0
  3  6  1  0
  5  7  1  0
  4  8  2  0
  5  8  1  0
  6  9  1  0
  6 10  2  0
M  END
$$$$
