
     RDKit          3D

 10 11  0  0  0  0  0  0  0  0999 V2000
  138.7090  151.1469  142.6269 C   0  0  0  0  0  0  0  0  0  0  0  0
  138.5260  151.9370  143.5114 C   0  0  0  0  0  0  0  0  0  0  0  0
  137.3819  151.6579  144.3963 C   0  0  0  0  0  0  0  0  0  0  0  0
  139.7051  151.1184  141.6077 C   0  0  0  0  0  0  0  0  0  0  0  0
  136.7072  150.4347  144.0265 C   0  0  0  0  0  0  0  0  0  0  0  0
  139.4496  150.8400  140.3164 C   0  0  0  0  0  0  0  0  0  0  0  0
  138.1688  150.1903  140.1998 C   0  0  0  0  0  0  0  0  0  0  0  0
  137.2447  149.9095  141.0994 C   0  0  0  0  0  0  0  0  0  0  0  0
  137.5275  150.3001  142.3602 C   0  0  0  0  0  0  0  0  0  0  0  0
  136.6728  149.8497  143.0450 C   0  0  0  0  0  0  0  0  0  0  0  0
  1  2  1  0
  2  3  2  0
  1  4  1  0
  3  5  1  0
  4  6  2  0
  6  7  1  0
  7  8  2  0
  1  9  2  0
  8  9  1  0
  5 10  2  0
  9 10  1  0
M  END
$$$$
