
     RDKit          3D

 10 10  0  0  0  0  0  0  0  0999 V2000
  138.9705  151.3124  142.5681 C   0  0  0  0  0  0  0  0  0  0  0  0
  138.6057  152.0894  143.2653 C   0  0  0  0  0  0  0  0  0  0  0  0
  137.5209  151.8314  144.2019 C   0  0  0  0  0  0  0  0  0  0  0  0
  136.5811  152.7823  144.6505 C   0  0  0  0  0  0  0  0  0  0  0  0
  135.5281  152.5971  145.5921 C   0  0  0  0  0  0  0  0  0  0  0  0
  135.4711  151.1567  145.9206 C   0  0  0  0  0  0  0  0  0  0  0  0
  136.4065  150.4067  145.3810 C   0  0  0  0  0  0  0  0  0  0  0  0
  137.3148  150.5110  144.5825 C   0  0  0  0  0  0  0  0  0  0  0  0
  139.4909  151.2005  141.6098 C   0  0  0  0  0  0  0  0  0  0  0  0
  139.6113  150.8688  140.4819 C   0  0  0  0  0  0  0  0  0  0  0  0
  1  2  2  3
  2  3  1  0
  3  4  1  0
  4  5  2  0
  5  6  1  0
  6  7  2  0
  3  8  2  0
  7  8  1  0
  1  9  1  0
  9 10  3  0
M  END
$$$$
