
     RDKit          3D

 10 10  0  0  0  0  0  0  0  0999 V2000
  140.3036  150.2148  139.4783 Cl  0  0  0  0  0  0  0  0  0  0  0  0
  138.6783  150.1860  140.5319 C   0  0  0  0  0  0  0  0  0  0  0  0
  137.6385  149.3831  140.0945 C   0  0  0  0  0  0  0  0  0  0  0  0
  138.8668  150.7183  141.4516 C   0  0  0  0  0  0  0  0  0  0  0  0
  137.5308  148.8049  138.7967 C   0  0  0  0  0  0  0  0  0  0  0  0
  136.5059  149.4846  140.9722 C   0  0  0  0  0  0  0  0  0  0  0  0
  138.2654  150.9324  142.3972 C   0  0  0  0  0  0  0  0  0  0  0  0
  135.2493  149.0811  140.5977 C   0  0  0  0  0  0  0  0  0  0  0  0
  138.4450  151.5815  143.7593 C   0  0  0  0  0  0  0  0  0  0  0  0
  136.8527  150.3195  142.3127 C   0  0  0  0  0  0  0  0  0  0  0  0
  1  2  1  0
  2  3  2  0
  2  4  1  0
  3  5  1  0
  3  6  1  0
  4  7  2  0
  6  8  1  0
  7  9  1  0
  6 10  2  0
  7 10  1  0
M  END
$$$$
