
     RDKit          3D

 10 10  0  0  0  0  0  0  0  0999 V2000
  138.7090  151.1469  142.6269 C   0  0  0  0  0  0  0  0  0  0  0  0
  138.5260  151.9370  143.5114 C   0  0  0  0  0  0  0  0  0  0  0  0
  137.4749  151.6734  144.4638 C   0  0  0  0  0  0  0  0  0  0  0  0
  138.0103  149.8673  142.4738 C   0  0  0  0  0  0  0  0  0  0  0  0
  136.7212  150.4817  144.2964 C   0  0  0  0  0  0  0  0  0  0  0  0
  137.0162  149.5952  143.3274 C   0  0  0  0  0  0  0  0  0  0  0  0
  137.1315  152.6397  145.4953 C   0  0  0  0  0  0  0  0  0  0  0  0
  139.7947  151.3208  141.5586 C   0  0  0  0  0  0  0  0  0  0  0  0
  136.0018  153.1896  145.3875 C   0  0  0  0  0  0  0  0  0  0  0  0
  139.6206  150.8352  140.3259 C   0  0  0  0  0  0  0  0  0  0  0  0
  1  2  2  0
  2  3  1  0
  1  4  1  0
  3  5  2  0
  4  6  2  0
  5  6  1  0
  3  7  1  0
  1  8  1  0
  7  9  1  0
  8 10  2  0
M  END
$$$$
