
     RDKit          3D

 10 10  0  0  0  0  0  0  0  0999 V2000
  139.5348  150.8906  142.2305 C   0  0  0  0  0  0  0  0  0  0  0  0
  139.0139  150.3976  141.0574 C   0  0  0  0  0  0  0  0  0  0  0  0
  138.6965  150.9489  143.4028 C   0  0  0  0  0  0  0  0  0  0  0  0
  137.7130  149.9460  141.0427 C   0  0  0  0  0  0  0  0  0  0  0  0
  137.5183  150.9374  143.4785 C   0  0  0  0  0  0  0  0  0  0  0  0
  136.6733  151.1274  144.6812 C   0  0  0  0  0  0  0  0  0  0  0  0
  136.8075  150.3340  142.2712 C   0  0  0  0  0  0  0  0  0  0  0  0
  139.8325  150.3451  139.7766 C   0  0  0  0  0  0  0  0  0  0  0  0
  141.2337  150.3116  139.9457 C   0  0  0  0  0  0  0  0  0  0  0  0
  139.3910  150.3656  138.7952 O   0  0  0  0  0  0  0  0  0  0  0  0
  1  2  2  0
  1  3  1  0
  2  4  1  0
  3  5  2  0
  5  6  1  0
  4  7  2  0
  5  7  1  0
  2  8  1  0
  8  9  1  0
  8 10  2  0
M  END
$$$$
