
     RDKit          3D

  9  9  0  0  0  0  0  0  0  0999 V2000
  139.0004  149.7631  140.3649 C   0  0  0  0  0  0  0  0  0  0  0  0
  138.7142  149.5451  139.1249 C   0  0  0  0  0  0  0  0  0  0  0  0
  138.1856  150.1072  141.2839 C   0  0  0  0  0  0  0  0  0  0  0  0
  137.3213  149.5926  138.6821 C   0  0  0  0  0  0  0  0  0  0  0  0
  136.9821  149.1480  137.4604 O   0  0  0  0  0  0  0  0  0  0  0  0
  136.3925  149.6121  139.4099 C   0  0  0  0  0  0  0  0  0  0  0  0
  135.0509  149.6478  139.3373 O   0  0  0  0  0  0  0  0  0  0  0  0
  138.6217  150.4955  142.6381 C   0  0  0  0  0  0  0  0  0  0  0  0
  136.7158  150.0008  140.9954 C   0  0  0  0  0  0  0  0  0  0  0  0
  1  2  2  0
  1  3  1  0
  2  4  1  0
  4  5  1  0
  4  6  2  0
  6  7  1  0
  3  8  1  0
  3  9  2  0
  6  9  1  0
M  END
$$$$
