
     RDKit          3D

 10 11  0  0  0  0  0  0  0  0999 V2000
  139.2621  151.0929  142.4047 C   0  0  0  0  0  0  0  0  0  0  0  0
  138.8616  152.1308  142.9039 C   0  0  0  0  0  0  0  0  0  0  0  0
  137.9118  151.7982  143.7822 C   0  0  0  0  0  0  0  0  0  0  0  0
  138.8285  150.4008  141.6024 C   0  0  0  0  0  0  0  0  0  0  0  0
  137.6662  149.9534  141.7610 C   0  0  0  0  0  0  0  0  0  0  0  0
  137.5078  152.6004  144.9580 C   0  0  0  0  0  0  0  0  0  0  0  0
  136.7566  150.5976  142.5696 C   0  0  0  0  0  0  0  0  0  0  0  0
  136.7865  151.2734  143.6287 C   0  0  0  0  0  0  0  0  0  0  0  0
  135.8685  151.3797  144.7233 C   0  0  0  0  0  0  0  0  0  0  0  0
  136.3716  152.2703  145.4581 N   0  0  0  0  0  0  0  0  0  0  0  0
  1  2  1  0
  2  3  2  0
  1  4  2  0
  4  5  1  0
  3  6  1  0
  5  7  2  0
  3  8  1  0
  7  8  1  0
  8  9  2  0
  6 10  2  0
  9 10  1  0
M  END
$$$$
