
     RDKit          3D

 10 10  0  0  0  0  0  0  0  0999 V2000
  139.5348  150.8906  142.2305 C   0  0  0  0  0  0  0  0  0  0  0  0
  139.0139  150.3976  141.0574 C   0  0  0  0  0  0  0  0  0  0  0  0
  138.6965  150.9489  143.4028 C   0  0  0  0  0  0  0  0  0  0  0  0
  137.7130  149.9460  141.0427 C   0  0  0  0  0  0  0  0  0  0  0  0
  136.8197  150.0017  142.1509 C   0  0  0  0  0  0  0  0  0  0  0  0
  137.4312  150.6538  143.4113 C   0  0  0  0  0  0  0  0  0  0  0  0
  136.5522  150.8050  144.5730 C   0  0  0  0  0  0  0  0  0  0  0  0
  139.8944  150.4132  139.7605 C   0  0  0  0  0  0  0  0  0  0  0  0
  139.3278  150.3518  138.6012 C   0  0  0  0  0  0  0  0  0  0  0  0
  141.2296  150.5373  140.0332 C   0  0  0  0  0  0  0  0  0  0  0  0
  1  2  2  0
  1  3  1  0
  2  4  1  0
  4  5  2  0
  3  6  2  0
  5  6  1  0
  6  7  1  0
  2  8  1  0
  8  9  1  0
  8 10  2  0
M  END
$$$$
