
     RDKit          3D

 10 11  0  0  0  0  0  0  0  0999 V2000
  138.9705  151.3124  142.5681 C   0  0  0  0  0  0  0  0  0  0  0  0
  138.6057  152.0894  143.2653 C   0  0  0  0  0  0  0  0  0  0  0  0
  137.5209  151.8314  144.2019 C   0  0  0  0  0  0  0  0  0  0  0  0
  138.4515  149.8627  142.6446 C   0  0  0  0  0  0  0  0  0  0  0  0
  137.0534  152.8828  145.0294 C   0  0  0  0  0  0  0  0  0  0  0  0
  135.8671  152.9029  145.3789 C   0  0  0  0  0  0  0  0  0  0  0  0
  136.6514  150.7532  144.4544 C   0  0  0  0  0  0  0  0  0  0  0  0
  135.0643  151.7973  145.3438 C   0  0  0  0  0  0  0  0  0  0  0  0
  135.4571  150.6906  145.0019 C   0  0  0  0  0  0  0  0  0  0  0  0
  137.3946  149.5390  143.7683 C   0  0  0  0  0  0  0  0  0  0  0  0
  1  2  2  0
  2  3  1  0
  1  4  1  0
  3  5  1  0
  5  6  2  0
  3  7  2  0
  6  8  1  0
  7  9  1  0
  8  9  2  0
  4 10  1  0
  7 10  1  0
M  END
$$$$
