
     RDKit          3D

 10 10  0  0  0  0  0  0  0  0999 V2000
  138.9705  151.3124  142.5681 C   0  0  0  0  0  0  0  0  0  0  0  0
  138.6057  152.0894  143.2653 C   0  0  0  0  0  0  0  0  0  0  0  0
  137.5209  151.8314  144.2019 C   0  0  0  0  0  0  0  0  0  0  0  0
  136.5811  152.7823  144.6505 C   0  0  0  0  0  0  0  0  0  0  0  0
  135.5281  152.5971  145.5921 C   0  0  0  0  0  0  0  0  0  0  0  0
  135.4711  151.1567  145.9206 C   0  0  0  0  0  0  0  0  0  0  0  0
  137.0905  150.4921  144.7336 C   0  0  0  0  0  0  0  0  0  0  0  0
  136.2012  150.1844  145.5857 C   0  0  0  0  0  0  0  0  0  0  0  0
  139.4605  151.2202  141.5883 C   0  0  0  0  0  0  0  0  0  0  0  0
  139.3528  150.6859  140.1309 C   0  0  0  0  0  0  0  0  0  0  0  0
  1  2  2  3
  2  3  1  0
  3  4  1  0
  4  5  2  0
  5  6  1  0
  3  7  2  0
  6  8  2  0
  7  8  1  0
  1  9  1  0
  9 10  1  0
M  END
$$$$
