
     RDKit          3D

 10 10  0  0  0  0  0  0  0  0999 V2000
  138.7090  151.1469  142.6269 C   0  0  0  0  0  0  0  0  0  0  0  0
  138.5260  151.9370  143.5114 C   0  0  0  0  0  0  0  0  0  0  0  0
  137.3819  151.6579  144.3963 C   0  0  0  0  0  0  0  0  0  0  0  0
  136.7963  150.3652  144.3271 C   0  0  0  0  0  0  0  0  0  0  0  0
  138.1396  149.8530  142.3394 C   0  0  0  0  0  0  0  0  0  0  0  0
  138.4527  149.0564  141.3182 C   0  0  0  0  0  0  0  0  0  0  0  0
  137.0716  152.6696  145.4521 C   0  0  0  0  0  0  0  0  0  0  0  0
  137.1068  149.5608  143.3613 C   0  0  0  0  0  0  0  0  0  0  0  0
  135.7315  152.6202  145.9672 C   0  0  0  0  0  0  0  0  0  0  0  0
  135.1259  151.5926  146.2738 C   0  0  0  0  0  0  0  0  0  0  0  0
  1  2  1  0
  2  3  2  0
  3  4  1  0
  1  5  2  0
  5  6  1  0
  3  7  1  0
  4  8  2  0
  5  8  1  0
  7  9  1  0
  9 10  2  0
M  END
$$$$
