
     RDKit          3D

 10 10  0  0  0  0  0  0  0  0999 V2000
  138.7236  151.5756  143.3190 C   0  0  0  0  0  0  0  0  0  0  0  0
  137.9189  152.3262  143.7538 C   0  0  0  0  0  0  0  0  0  0  0  0
  136.7533  151.7852  144.4573 C   0  0  0  0  0  0  0  0  0  0  0  0
  138.5774  150.7784  142.3589 C   0  0  0  0  0  0  0  0  0  0  0  0
  137.2450  150.1180  142.4701 C   0  0  0  0  0  0  0  0  0  0  0  0
  136.7126  149.1947  141.6071 C   0  0  0  0  0  0  0  0  0  0  0  0
  136.3715  150.6579  143.5307 C   0  0  0  0  0  0  0  0  0  0  0  0
  135.8148  152.3774  145.2728 C   0  0  0  0  0  0  0  0  0  0  0  0
  134.8807  151.6302  145.8660 C   0  0  0  0  0  0  0  0  0  0  0  0
  135.9602  153.3665  145.4456 O   0  0  0  0  0  0  0  0  0  0  0  0
  1  2  1  0
  2  3  2  0
  1  4  2  0
  4  5  1  0
  5  6  1  0
  3  7  1  0
  5  7  2  0
  3  8  1  0
  8  9  1  0
  8 10  2  0
M  END
$$$$
