
     RDKit          3D

 11 12  0  0  0  0  0  0  0  0999 V2000
  139.3427  149.9935  140.5880 C   0  0  0  0  0  0  0  0  0  0  0  0
  138.9528  149.9224  139.3656 C   0  0  0  0  0  0  0  0  0  0  0  0
  138.6122  150.1102  141.6416 C   0  0  0  0  0  0  0  0  0  0  0  0
  137.1910  149.8704  141.8331 C   0  0  0  0  0  0  0  0  0  0  0  0
  136.5134  149.7658  140.5812 C   0  0  0  0  0  0  0  0  0  0  0  0
  139.2015  150.3839  143.0731 C   0  0  0  0  0  0  0  0  0  0  0  0
  138.2641  150.9554  144.0719 C   0  0  0  0  0  0  0  0  0  0  0  0
  139.6581  149.8770  138.1577 C   0  0  0  0  0  0  0  0  0  0  0  0
  137.3554  149.7327  139.2870 C   0  0  0  0  0  0  0  0  0  0  0  0
  136.4798  150.0856  142.7827 N   0  0  0  0  0  0  0  0  0  0  0  0
  137.0296  150.6660  143.9288 C   0  0  0  0  0  0  0  0  0  0  0  0
  1  2  2  0
  1  3  1  0
  3  4  1  0
  4  5  2  0
  3  6  1  0
  6  7  2  0
  2  8  1  0
  2  9  1  0
  5  9  1  0
  4 10  1  0
  7 11  1  0
 10 11  2  0
M  END
$$$$
