
     RDKit          3D

 11 12  0  0  0  0  0  0  0  0999 V2000
  139.5348  150.8906  142.2305 C   0  0  0  0  0  0  0  0  0  0  0  0
  138.9997  151.9974  142.6382 C   0  0  0  0  0  0  0  0  0  0  0  0
  138.9554  149.6519  142.4266 C   0  0  0  0  0  0  0  0  0  0  0  0
  137.7538  151.8921  143.4337 C   0  0  0  0  0  0  0  0  0  0  0  0
  137.3041  153.0156  144.1120 C   0  0  0  0  0  0  0  0  0  0  0  0
  136.1179  152.8751  145.0022 C   0  0  0  0  0  0  0  0  0  0  0  0
  137.4049  150.4987  143.8252 C   0  0  0  0  0  0  0  0  0  0  0  0
  135.4900  154.0855  145.4887 C   0  0  0  0  0  0  0  0  0  0  0  0
  136.3962  150.4366  144.8361 C   0  0  0  0  0  0  0  0  0  0  0  0
  135.6497  151.5443  145.3834 C   0  0  0  0  0  0  0  0  0  0  0  0
  137.9279  149.4959  143.3182 N   0  0  0  0  0  0  0  0  0  0  0  0
  1  2  2  0
  1  3  1  0
  2  4  1  0
  4  5  1  0
  5  6  2  0
  4  7  2  0
  6  8  1  0
  7  9  1  0
  6 10  1  0
  9 10  2  0
  3 11  2  0
  7 11  1  0
M  END
$$$$
