
     RDKit          3D

 11 12  0  0  0  0  0  0  0  0999 V2000
  139.0004  149.7631  140.3649 C   0  0  0  0  0  0  0  0  0  0  0  0
  138.7142  149.5451  139.1249 C   0  0  0  0  0  0  0  0  0  0  0  0
  138.1856  150.1072  141.2839 C   0  0  0  0  0  0  0  0  0  0  0  0
  137.3213  149.5926  138.6821 C   0  0  0  0  0  0  0  0  0  0  0  0
  136.3776  149.8122  139.7323 C   0  0  0  0  0  0  0  0  0  0  0  0
  138.6498  150.4524  142.6761 C   0  0  0  0  0  0  0  0  0  0  0  0
  137.8095  150.9703  143.6446 C   0  0  0  0  0  0  0  0  0  0  0  0
  134.9539  149.9121  139.4569 O   0  0  0  0  0  0  0  0  0  0  0  0
  136.7217  150.1248  141.0322 C   0  0  0  0  0  0  0  0  0  0  0  0
  136.5074  150.9642  143.6300 C   0  0  0  0  0  0  0  0  0  0  0  0
  135.8263  150.6180  142.3094 C   0  0  0  0  0  0  0  0  0  0  0  0
  1  2  2  0
  1  3  1  0
  2  4  1  0
  4  5  2  0
  3  6  1  0
  6  7  2  0
  5  8  1  0
  3  9  2  0
  5  9  1  0
  7 10  1  0
  9 11  1  0
 10 11  2  0
M  END
$$$$
