
     RDKit          3D

 11 11  0  0  0  0  0  0  0  0999 V2000
  140.3036  150.2148  139.4783 Cl  0  0  0  0  0  0  0  0  0  0  0  0
  138.6783  150.1860  140.5319 C   0  0  0  0  0  0  0  0  0  0  0  0
  137.6385  149.3831  140.0945 C   0  0  0  0  0  0  0  0  0  0  0  0
  138.7505  150.9487  141.6715 C   0  0  0  0  0  0  0  0  0  0  0  0
  136.4550  149.4179  140.9244 C   0  0  0  0  0  0  0  0  0  0  0  0
  137.6737  150.9641  142.5334 C   0  0  0  0  0  0  0  0  0  0  0  0
  137.7393  151.6894  143.7851 C   0  0  0  0  0  0  0  0  0  0  0  0
  136.5326  150.3454  142.1357 C   0  0  0  0  0  0  0  0  0  0  0  0
  136.6809  151.4847  144.7315 C   0  0  0  0  0  0  0  0  0  0  0  0
  136.4095  150.4746  145.2767 C   0  0  0  0  0  0  0  0  0  0  0  0
  135.8635  152.4659  144.9773 C   0  0  0  0  0  0  0  0  0  0  0  0
  1  2  1  0
  2  3  2  0
  2  4  1  0
  3  5  1  0
  4  6  2  0
  6  7  1  0
  5  8  2  0
  6  8  1  0
  7  9  1  0
  9 10  2  0
  9 11  1  0
M  END
$$$$
