
     RDKit          3D

 11 12  0  0  0  0  0  0  0  0999 V2000
  139.2621  151.0929  142.4047 C   0  0  0  0  0  0  0  0  0  0  0  0
  138.8616  152.1308  142.9039 C   0  0  0  0  0  0  0  0  0  0  0  0
  137.9118  151.7982  143.7822 C   0  0  0  0  0  0  0  0  0  0  0  0
  138.8285  150.4008  141.6024 C   0  0  0  0  0  0  0  0  0  0  0  0
  137.6662  149.9534  141.7610 C   0  0  0  0  0  0  0  0  0  0  0  0
  137.5078  152.6004  144.9580 C   0  0  0  0  0  0  0  0  0  0  0  0
  136.7566  150.5976  142.5696 C   0  0  0  0  0  0  0  0  0  0  0  0
  135.2516  150.0192  142.1955 C   0  0  0  0  0  0  0  0  0  0  0  0
  136.6977  151.1243  143.4663 C   0  0  0  0  0  0  0  0  0  0  0  0
  136.1634  152.6681  145.2550 C   0  0  0  0  0  0  0  0  0  0  0  0
  135.6666  151.3376  144.4052 C   0  0  0  0  0  0  0  0  0  0  0  0
  1  2  1  0
  2  3  2  0
  1  4  2  0
  4  5  1  0
  3  6  1  0
  5  7  2  0
  7  8  1  0
  3  9  1  0
  7  9  1  0
  6 10  1  0
  9 11  1  0
 10 11  1  0
M  END
$$$$
