
     RDKit          3D

 11 11  0  0  0  0  0  0  0  0999 V2000
  138.9705  151.3124  142.5681 C   0  0  0  0  0  0  0  0  0  0  0  0
  138.6057  152.0894  143.2653 C   0  0  0  0  0  0  0  0  0  0  0  0
  137.5209  151.8314  144.2019 C   0  0  0  0  0  0  0  0  0  0  0  0
  136.5811  152.7823  144.6505 C   0  0  0  0  0  0  0  0  0  0  0  0
  135.5281  152.5971  145.5921 C   0  0  0  0  0  0  0  0  0  0  0  0
  135.4711  151.1567  145.9206 C   0  0  0  0  0  0  0  0  0  0  0  0
  137.0945  150.5142  144.7085 C   0  0  0  0  0  0  0  0  0  0  0  0
  134.4170  150.8677  146.9228 C   0  0  0  0  0  0  0  0  0  0  0  0
  136.1930  150.1359  145.5565 C   0  0  0  0  0  0  0  0  0  0  0  0
  139.5104  151.5234  141.1902 C   0  0  0  0  0  0  0  0  0  0  0  0
  139.5523  150.5024  140.3268 C   0  0  0  0  0  0  0  0  0  0  0  0
  1  2  2  3
  2  3  1  0
  3  4  1  0
  4  5  2  0
  5  6  1  0
  3  7  2  0
  6  8  1  0
  6  9  2  0
  7  9  1  0
  1 10  1  0
 10 11  1  0
M  END
$$$$
