
     RDKit          3D

 11 12  0  0  0  0  0  0  0  0999 V2000
  138.7236  151.5756  143.3190 C   0  0  0  0  0  0  0  0  0  0  0  0
  137.9189  152.3262  143.7538 C   0  0  0  0  0  0  0  0  0  0  0  0
  136.7533  151.7852  144.4573 C   0  0  0  0  0  0  0  0  0  0  0  0
  136.8351  150.4435  144.7144 C   0  0  0  0  0  0  0  0  0  0  0  0
  135.7192  152.4673  144.9834 C   0  0  0  0  0  0  0  0  0  0  0  0
  138.5073  150.1686  143.2509 C   0  0  0  0  0  0  0  0  0  0  0  0
  134.7774  151.9784  145.6888 C   0  0  0  0  0  0  0  0  0  0  0  0
  139.3250  149.2236  142.5746 O   0  0  0  0  0  0  0  0  0  0  0  0
  134.7442  150.6188  146.0657 C   0  0  0  0  0  0  0  0  0  0  0  0
  135.8978  149.9528  145.5513 C   0  0  0  0  0  0  0  0  0  0  0  0
  137.7059  149.6600  144.0596 C   0  0  0  0  0  0  0  0  0  0  0  0
  1  2  1  0
  2  3  2  0
  3  4  1  0
  3  5  1  0
  1  6  2  0
  5  7  2  0
  6  8  1  0
  7  9  1  0
  4 10  1  0
  9 10  2  0
  4 11  2  0
  6 11  1  0
M  END
$$$$
