
     RDKit          3D

 11 12  0  0  0  0  0  0  0  0999 V2000
  139.2621  151.0929  142.4047 C   0  0  0  0  0  0  0  0  0  0  0  0
  138.8616  152.1308  142.9039 C   0  0  0  0  0  0  0  0  0  0  0  0
  137.7831  151.8921  143.8937 C   0  0  0  0  0  0  0  0  0  0  0  0
  138.6293  149.7793  142.4951 C   0  0  0  0  0  0  0  0  0  0  0  0
  137.3056  153.0075  144.6656 C   0  0  0  0  0  0  0  0  0  0  0  0
  136.1523  152.9008  145.2280 C   0  0  0  0  0  0  0  0  0  0  0  0
  136.9818  150.7163  144.2585 C   0  0  0  0  0  0  0  0  0  0  0  0
  135.4948  151.6904  145.2931 C   0  0  0  0  0  0  0  0  0  0  0  0
  137.5287  149.8012  143.4491 N   0  0  0  0  0  0  0  0  0  0  0  0
  134.3453  151.5757  146.1888 C   0  0  0  0  0  0  0  0  0  0  0  0
  136.1566  150.5698  144.8065 C   0  0  0  0  0  0  0  0  0  0  0  0
  1  2  1  0
  2  3  2  0
  1  4  2  0
  3  5  1  0
  5  6  2  0
  3  7  1  0
  6  8  1  0
  4  9  1  0
  7  9  2  0
  8 10  1  0
  7 11  1  0
  8 11  2  0
M  END
$$$$
