
     RDKit          3D

 11 12  0  0  0  0  0  0  0  0999 V2000
  139.3427  149.9935  140.5880 C   0  0  0  0  0  0  0  0  0  0  0  0
  138.9528  149.9224  139.3656 C   0  0  0  0  0  0  0  0  0  0  0  0
  138.6122  150.1102  141.6416 C   0  0  0  0  0  0  0  0  0  0  0  0
  137.1910  149.8704  141.8331 C   0  0  0  0  0  0  0  0  0  0  0  0
  136.5134  149.7658  140.5812 C   0  0  0  0  0  0  0  0  0  0  0  0
  139.1468  150.4926  143.0895 C   0  0  0  0  0  0  0  0  0  0  0  0
  138.1994  151.0020  144.0554 C   0  0  0  0  0  0  0  0  0  0  0  0
  137.3837  149.6884  139.2439 C   0  0  0  0  0  0  0  0  0  0  0  0
  136.5906  150.3455  142.9735 N   0  0  0  0  0  0  0  0  0  0  0  0
  136.9838  150.7260  144.0159 C   0  0  0  0  0  0  0  0  0  0  0  0
  136.1647  151.2813  145.1764 C   0  0  0  0  0  0  0  0  0  0  0  0
  1  2  2  0
  1  3  1  0
  3  4  1  0
  4  5  2  0
  3  6  1  0
  6  7  2  0
  2  8  1  0
  5  8  1  0
  4  9  1  0
  7 10  1  0
  9 10  2  0
 10 11  1  0
M  END
$$$$
