
     RDKit          3D

 11 12  0  0  0  0  0  0  0  0999 V2000
  139.3427  149.9935  140.5880 C   0  0  0  0  0  0  0  0  0  0  0  0
  138.9528  149.9224  139.3656 C   0  0  0  0  0  0  0  0  0  0  0  0
  138.6122  150.1102  141.6416 C   0  0  0  0  0  0  0  0  0  0  0  0
  137.1910  149.8704  141.8331 C   0  0  0  0  0  0  0  0  0  0  0  0
  136.5134  149.7658  140.5812 C   0  0  0  0  0  0  0  0  0  0  0  0
  139.2015  150.3839  143.0731 C   0  0  0  0  0  0  0  0  0  0  0  0
  138.2641  150.9554  144.0719 C   0  0  0  0  0  0  0  0  0  0  0  0
  137.2338  149.6918  139.3064 C   0  0  0  0  0  0  0  0  0  0  0  0
  136.4740  150.1460  142.9919 C   0  0  0  0  0  0  0  0  0  0  0  0
  137.0070  150.6525  144.0930 C   0  0  0  0  0  0  0  0  0  0  0  0
  136.0863  150.9976  145.3913 C   0  0  0  0  0  0  0  0  0  0  0  0
  1  2  2  0
  1  3  1  0
  3  4  1  0
  4  5  2  0
  3  6  1  0
  6  7  2  0
  2  8  1  0
  5  8  1  0
  4  9  1  0
  7 10  1  0
  9 10  2  0
 10 11  1  0
M  END
$$$$
