
     RDKit          3D

 11 11  0  0  0  0  0  0  0  0999 V2000
  140.3036  150.2148  139.4783 Cl  0  0  0  0  0  0  0  0  0  0  0  0
  138.6783  150.1860  140.5319 C   0  0  0  0  0  0  0  0  0  0  0  0
  137.6385  149.3831  140.0945 C   0  0  0  0  0  0  0  0  0  0  0  0
  138.8668  150.7183  141.4516 C   0  0  0  0  0  0  0  0  0  0  0  0
  137.5308  148.8049  138.7967 C   0  0  0  0  0  0  0  0  0  0  0  0
  137.9039  150.8483  142.6245 C   0  0  0  0  0  0  0  0  0  0  0  0
  136.5134  149.5452  140.9489 C   0  0  0  0  0  0  0  0  0  0  0  0
  138.1372  151.4606  143.8588 C   0  0  0  0  0  0  0  0  0  0  0  0
  136.6732  150.2228  142.1954 C   0  0  0  0  0  0  0  0  0  0  0  0
  137.0904  151.9210  144.6040 C   0  0  0  0  0  0  0  0  0  0  0  0
  136.4083  151.0103  145.4622 C   0  0  0  0  0  0  0  0  0  0  0  0
  1  2  1  0
  2  3  2  0
  2  4  1  0
  3  5  1  0
  4  6  2  0
  3  7  1  0
  6  8  1  0
  6  9  1  0
  7  9  2  0
  8 10  1  0
 10 11  1  0
M  END
$$$$
