
     RDKit          3D

 11 11  0  0  0  0  0  0  0  0999 V2000
  139.2621  151.0929  142.4047 C   0  0  0  0  0  0  0  0  0  0  0  0
  138.8616  152.1308  142.9039 C   0  0  0  0  0  0  0  0  0  0  0  0
  137.7831  151.8921  143.8937 C   0  0  0  0  0  0  0  0  0  0  0  0
  137.3591  150.5405  144.0623 C   0  0  0  0  0  0  0  0  0  0  0  0
  136.3238  150.4648  145.1225 C   0  0  0  0  0  0  0  0  0  0  0  0
  139.2673  149.7555  142.8050 C   0  0  0  0  0  0  0  0  0  0  0  0
  140.1304  151.2941  141.1073 C   0  0  0  0  0  0  0  0  0  0  0  0
  138.1861  149.4529  143.6311 C   0  0  0  0  0  0  0  0  0  0  0  0
  140.0547  150.6059  140.1477 C   0  0  0  0  0  0  0  0  0  0  0  0
  135.4295  151.3320  145.3173 C   0  0  0  0  0  0  0  0  0  0  0  0
  134.9839  152.1782  144.4248 C   0  0  0  0  0  0  0  0  0  0  0  0
  1  2  1  0
  2  3  2  0
  3  4  1  0
  4  5  2  3
  1  6  1  0
  1  7  2  3
  4  8  1  0
  6  8  2  0
  7  9  1  0
  5 10  1  0
 10 11  1  0
M  END
$$$$
