
     RDKit          3D

 11 11  0  0  0  0  0  0  0  0999 V2000
  140.3036  150.2148  139.4783 Cl  0  0  0  0  0  0  0  0  0  0  0  0
  138.6783  150.1860  140.5319 C   0  0  0  0  0  0  0  0  0  0  0  0
  137.6385  149.3831  140.0945 C   0  0  0  0  0  0  0  0  0  0  0  0
  138.7733  150.9283  141.6507 C   0  0  0  0  0  0  0  0  0  0  0  0
  137.6844  150.8835  142.5421 C   0  0  0  0  0  0  0  0  0  0  0  0
  137.8374  151.5218  143.8915 C   0  0  0  0  0  0  0  0  0  0  0  0
  136.6920  151.6926  144.6953 C   0  0  0  0  0  0  0  0  0  0  0  0
  136.6730  152.4940  145.8712 C   0  0  0  0  0  0  0  0  0  0  0  0
  136.4822  149.4441  140.9238 C   0  0  0  0  0  0  0  0  0  0  0  0
  136.5118  150.2092  142.0293 C   0  0  0  0  0  0  0  0  0  0  0  0
  135.3943  153.0898  145.8982 C   0  0  0  0  0  0  0  0  0  0  0  0
  1  2  1  0
  2  3  1  0
  2  4  2  0
  4  5  1  0
  5  6  1  0
  6  7  2  3
  7  8  1  0
  3  9  2  0
  5 10  2  0
  9 10  1  0
  8 11  1  0
M  END
$$$$
