
     RDKit          3D

  9  9  0  0  0  0  0  0  0  0999 V2000
  138.9700  151.3142  142.5680 C   0  0  0  0  0  0  0  0  0  0  0  0
  138.6028  152.0888  143.2649 C   0  0  0  0  0  0  0  0  0  0  0  0
  137.4885  151.7627  144.1910 C   0  0  0  0  0  0  0  0  0  0  0  0
  139.9946  151.3890  141.4262 C   0  0  0  0  0  0  0  0  0  0  0  0
  137.1413  150.3696  144.0327 C   0  0  0  0  0  0  0  0  0  0  0  0
  139.6220  150.7342  140.2336 C   0  0  0  0  0  0  0  0  0  0  0  0
  138.1515  149.9788  142.5031 C   0  0  0  0  0  0  0  0  0  0  0  0
  137.4486  149.5598  143.2676 C   0  0  0  0  0  0  0  0  0  0  0  0
  136.9882  152.8243  145.2561 C   0  0  0  0  0  0  0  0  0  0  0  0
  1  2  1  0
  2  3  2  0
  1  4  1  0
  3  5  1  0
  4  6  2  0
  1  7  2  0
  5  8  2  0
  7  8  1  0
  3  9  1  0
M  END
$$$$

     RDKit          3D

  9  9  0  0  0  0  0  0  0  0999 V2000
  139.5351  150.8912  142.2316 C   0  0  0  0  0  0  0  0  0  0  0  0
  138.9995  151.9980  142.6388 C   0  0  0  0  0  0  0  0  0  0  0  0
  138.9552  149.6528  142.4249 C   0  0  0  0  0  0  0  0  0  0  0  0
  137.7531  151.8934  143.4318 C   0  0  0  0  0  0  0  0  0  0  0  0
  137.3026  153.0162  144.1111 C   0  0  0  0  0  0  0  0  0  0  0  0
  136.1169  152.8756  145.0009 C   0  0  0  0  0  0  0  0  0  0  0  0
  137.4036  150.5003  143.8242 C   0  0  0  0  0  0  0  0  0  0  0  0
  137.9469  149.5222  143.3542 C   0  0  0  0  0  0  0  0  0  0  0  0
  135.1929  153.5503  145.2711 C   0  0  0  0  0  0  0  0  0  0  0  0
  1  2  2  0
  1  3  1  0
  2  4  1  0
  4  5  1  0
  5  6  2  3
  4  7  2  0
  3  8  2  0
  7  8  1  0
  6  9  1  0
M  END
$$$$

     RDKit          3D

  9  9  0  0  0  0  0  0  0  0999 V2000
  139.5351  150.8912  142.2316 C   0  0  0  0  0  0  0  0  0  0  0  0
  139.0142  150.3967  141.0596 C   0  0  0  0  0  0  0  0  0  0  0  0
  138.6965  150.9512  143.4035 C   0  0  0  0  0  0  0  0  0  0  0  0
  137.7124  149.9443  141.0462 C   0  0  0  0  0  0  0  0  0  0  0  0
  137.5183  150.9356  143.4797 C   0  0  0  0  0  0  0  0  0  0  0  0
  136.8094  150.2381  142.2068 C   0  0  0  0  0  0  0  0  0  0  0  0
  139.8928  150.2556  139.7332 C   0  0  0  0  0  0  0  0  0  0  0  0
  139.3205  150.2696  138.6046 C   0  0  0  0  0  0  0  0  0  0  0  0
  136.6140  151.1740  144.5751 C   0  0  0  0  0  0  0  0  0  0  0  0
  1  2  2  0
  1  3  1  0
  2  4  1  0
  3  5  2  0
  4  6  2  0
  5  6  1  0
  2  7  1  0
  7  8  2  0
  5  9  1  0
M  END
$$$$

     RDKit          3D

  9 10  0  0  0  0  0  0  0  0999 V2000
  138.7088  151.1469  142.6270 C   0  0  0  0  0  0  0  0  0  0  0  0
  138.5262  151.9374  143.5115 C   0  0  0  0  0  0  0  0  0  0  0  0
  137.3922  151.8105  144.0744 C   0  0  0  0  0  0  0  0  0  0  0  0
  136.5951  150.6201  143.9738 C   0  0  0  0  0  0  0  0  0  0  0  0
  137.9799  149.9622  142.2560 C   0  0  0  0  0  0  0  0  0  0  0  0
  136.5087  152.7504  145.0878 C   0  0  0  0  0  0  0  0  0  0  0  0
  135.4840  150.3765  144.8383 C   0  0  0  0  0  0  0  0  0  0  0  0
  136.9234  149.7209  142.9997 C   0  0  0  0  0  0  0  0  0  0  0  0
  135.1831  151.6020  145.5165 C   0  0  0  0  0  0  0  0  0  0  0  0
  1  2  1  0
  2  3  2  0
  3  4  1  0
  1  5  2  0
  3  6  1  0
  4  7  1  0
  4  8  2  0
  5  8  1  0
  6  9  1  0
  7  9  2  0
M  END
$$$$

     RDKit          3D

  9  9  0  0  0  0  0  0  0  0999 V2000
  139.5351  150.8912  142.2316 C   0  0  0  0  0  0  0  0  0  0  0  0
  139.0142  150.3967  141.0596 C   0  0  0  0  0  0  0  0  0  0  0  0
  138.6965  150.9512  143.4035 C   0  0  0  0  0  0  0  0  0  0  0  0
  137.7124  149.9443  141.0462 C   0  0  0  0  0  0  0  0  0  0  0  0
  136.8198  150.0024  142.1539 C   0  0  0  0  0  0  0  0  0  0  0  0
  137.3758  150.5812  143.3369 C   0  0  0  0  0  0  0  0  0  0  0  0
  136.4568  150.8528  144.7915 Cl  0  0  0  0  0  0  0  0  0  0  0  0
  139.9337  150.4169  139.7329 C   0  0  0  0  0  0  0  0  0  0  0  0
  139.3468  150.3609  138.6025 C   0  0  0  0  0  0  0  0  0  0  0  0
  1  2  2  0
  1  3  1  0
  2  4  1  0
  4  5  2  0
  3  6  2  0
  5  6  1  0
  6  7  1  0
  2  8  1  0
  8  9  2  0
M  END
$$$$

     RDKit          3D

  9  9  0  0  0  0  0  0  0  0999 V2000
  139.0001  149.7637  140.3651 C   0  0  0  0  0  0  0  0  0  0  0  0
  138.7140  149.5447  139.1253 C   0  0  0  0  0  0  0  0  0  0  0  0
  138.1593  150.1004  141.2813 C   0  0  0  0  0  0  0  0  0  0  0  0
  137.3241  149.5797  138.6751 C   0  0  0  0  0  0  0  0  0  0  0  0
  137.0147  149.1376  137.4380 O   0  0  0  0  0  0  0  0  0  0  0  0
  136.3882  149.5921  139.3454 C   0  0  0  0  0  0  0  0  0  0  0  0
  135.0533  149.6269  139.2704 O   0  0  0  0  0  0  0  0  0  0  0  0
  136.7079  150.0327  140.9865 C   0  0  0  0  0  0  0  0  0  0  0  0
  138.4706  150.5396  142.8211 C   0  0  0  0  0  0  0  0  0  0  0  0
  1  2  2  0
  1  3  1  0
  2  4  1  0
  4  5  1  0
  4  6  2  0
  6  7  1  0
  3  8  2  0
  6  8  1  0
  3  9  1  0
M  END
$$$$

     RDKit          3D

  9  9  0  0  0  0  0  0  0  0999 V2000
  138.9700  151.3142  142.5680 C   0  0  0  0  0  0  0  0  0  0  0  0
  138.6028  152.0888  143.2649 C   0  0  0  0  0  0  0  0  0  0  0  0
  137.6281  151.7065  144.0688 C   0  0  0  0  0  0  0  0  0  0  0  0
  137.2565  150.3581  144.1219 C   0  0  0  0  0  0  0  0  0  0  0  0
  136.9628  152.5453  145.1713 C   0  0  0  0  0  0  0  0  0  0  0  0
  138.5360  149.9277  142.4177 C   0  0  0  0  0  0  0  0  0  0  0  0
  137.1896  153.7807  145.1664 C   0  0  0  0  0  0  0  0  0  0  0  0
  136.3635  149.9130  145.2198 C   0  0  0  0  0  0  0  0  0  0  0  0
  137.7195  149.3986  143.3493 C   0  0  0  0  0  0  0  0  0  0  0  0
  1  2  1  0
  2  3  2  0
  3  4  1  0
  3  5  1  0
  1  6  2  0
  5  7  2  0
  4  8  1  0
  4  9  2  0
  6  9  1  0
M  END
$$$$

     RDKit          3D

  9  9  0  0  0  0  0  0  0  0999 V2000
  140.3043  150.2153  139.4787 Cl  0  0  0  0  0  0  0  0  0  0  0  0
  138.6777  150.1901  140.5340 C   0  0  0  0  0  0  0  0  0  0  0  0
  137.6379  149.3864  140.0971 C   0  0  0  0  0  0  0  0  0  0  0  0
  138.7740  150.9330  141.6513 C   0  0  0  0  0  0  0  0  0  0  0  0
  137.6926  150.8816  142.5542 C   0  0  0  0  0  0  0  0  0  0  0  0
  136.5950  150.1055  142.1638 C   0  0  0  0  0  0  0  0  0  0  0  0
  137.6018  148.7936  138.8605 C   0  0  0  0  0  0  0  0  0  0  0  0
  137.7720  151.5187  144.0788 Cl  0  0  0  0  0  0  0  0  0  0  0  0
  136.3863  149.4910  140.9530 C   0  0  0  0  0  0  0  0  0  0  0  0
  1  2  1  0
  2  3  1  0
  2  4  2  0
  4  5  1  0
  5  6  2  0
  3  7  1  0
  5  8  1  0
  3  9  2  0
  6  9  1  0
M  END
$$$$

     RDKit          3D

  9  9  0  0  0  0  0  0  0  0999 V2000
  139.5351  150.8912  142.2316 C   0  0  0  0  0  0  0  0  0  0  0  0
  139.0142  150.3967  141.0596 C   0  0  0  0  0  0  0  0  0  0  0  0
  138.6965  150.9512  143.4035 C   0  0  0  0  0  0  0  0  0  0  0  0
  137.7124  149.9443  141.0462 C   0  0  0  0  0  0  0  0  0  0  0  0
  136.8198  150.0024  142.1539 C   0  0  0  0  0  0  0  0  0  0  0  0
  137.3396  150.6390  143.3490 C   0  0  0  0  0  0  0  0  0  0  0  0
  139.9148  150.3656  139.7426 C   0  0  0  0  0  0  0  0  0  0  0  0
  139.3441  150.3534  138.6036 C   0  0  0  0  0  0  0  0  0  0  0  0
  141.2460  150.4513  140.0445 C   0  0  0  0  0  0  0  0  0  0  0  0
  1  2  2  0
  1  3  1  0
  2  4  1  0
  4  5  2  0
  3  6  2  0
  5  6  1  0
  2  7  1  0
  7  8  1  0
  7  9  2  0
M  END
$$$$

     RDKit          3D

  9  9  0  0  0  0  0  0  0  0999 V2000
  138.7241  151.5757  143.3192 C   0  0  0  0  0  0  0  0  0  0  0  0
  137.9190  152.3259  143.7537 C   0  0  0  0  0  0  0  0  0  0  0  0
  136.7519  151.8077  144.4387 C   0  0  0  0  0  0  0  0  0  0  0  0
  136.7823  150.4615  144.6818 C   0  0  0  0  0  0  0  0  0  0  0  0
  135.7184  152.5072  144.9787 C   0  0  0  0  0  0  0  0  0  0  0  0
  138.4930  150.1677  143.2342 C   0  0  0  0  0  0  0  0  0  0  0  0
  139.3550  149.2637  142.5228 O   0  0  0  0  0  0  0  0  0  0  0  0
  134.7654  151.9453  145.7460 C   0  0  0  0  0  0  0  0  0  0  0  0
  137.5408  149.5857  144.0114 C   0  0  0  0  0  0  0  0  0  0  0  0
  1  2  1  0
  2  3  2  0
  3  4  1  0
  3  5  1  0
  1  6  2  0
  6  7  1  0
  5  8  1  0
  4  9  2  0
  6  9  1  0
M  END
$$$$

     RDKit          3D

  9  9  0  0  0  0  0  0  0  0999 V2000
  140.3043  150.2153  139.4787 Cl  0  0  0  0  0  0  0  0  0  0  0  0
  138.6777  150.1901  140.5340 C   0  0  0  0  0  0  0  0  0  0  0  0
  137.6379  149.3864  140.0971 C   0  0  0  0  0  0  0  0  0  0  0  0
  138.7740  150.9330  141.6513 C   0  0  0  0  0  0  0  0  0  0  0  0
  137.6926  150.8816  142.5542 C   0  0  0  0  0  0  0  0  0  0  0  0
  136.5950  150.1055  142.1638 C   0  0  0  0  0  0  0  0  0  0  0  0
  135.4011  150.2120  142.9996 C   0  0  0  0  0  0  0  0  0  0  0  0
  136.4054  149.4885  140.8079 C   0  0  0  0  0  0  0  0  0  0  0  0
  137.8524  151.5402  143.9573 C   0  0  0  0  0  0  0  0  0  0  0  0
  1  2  1  0
  2  3  1  0
  2  4  2  0
  4  5  1  0
  5  6  2  0
  6  7  1  0
  3  8  2  0
  6  8  1  0
  5  9  1  0
M  END
$$$$

     RDKit          3D

  9  9  0  0  0  0  0  0  0  0999 V2000
  140.3043  150.2153  139.4787 Cl  0  0  0  0  0  0  0  0  0  0  0  0
  138.6777  150.1901  140.5340 C   0  0  0  0  0  0  0  0  0  0  0  0
  137.6379  149.3864  140.0971 C   0  0  0  0  0  0  0  0  0  0  0  0
  139.2420  150.7164  141.5780 C   0  0  0  0  0  0  0  0  0  0  0  0
  138.3728  151.0639  142.3847 C   0  0  0  0  0  0  0  0  0  0  0  0
  136.6713  149.8198  140.9356 C   0  0  0  0  0  0  0  0  0  0  0  0
  135.2386  149.4700  140.7860 C   0  0  0  0  0  0  0  0  0  0  0  0
  138.6590  151.7958  143.7483 C   0  0  0  0  0  0  0  0  0  0  0  0
  136.9962  150.6479  142.1968 C   0  0  0  0  0  0  0  0  0  0  0  0
  1  2  1  0
  2  3  1  0
  2  4  2  0
  4  5  1  0
  3  6  2  0
  6  7  1  0
  5  8  1  0
  5  9  2  0
  6  9  1  0
M  END
$$$$

     RDKit          3D

  9  9  0  0  0  0  0  0  0  0999 V2000
  140.3043  150.2153  139.4787 Cl  0  0  0  0  0  0  0  0  0  0  0  0
  138.6777  150.1901  140.5340 C   0  0  0  0  0  0  0  0  0  0  0  0
  137.6379  149.3864  140.0971 C   0  0  0  0  0  0  0  0  0  0  0  0
  138.7740  150.9330  141.6513 C   0  0  0  0  0  0  0  0  0  0  0  0
  137.6926  150.8816  142.5542 C   0  0  0  0  0  0  0  0  0  0  0  0
  136.5950  150.1055  142.1638 C   0  0  0  0  0  0  0  0  0  0  0  0
  137.6018  148.7936  138.8605 C   0  0  0  0  0  0  0  0  0  0  0  0
  137.8837  151.6519  143.9170 C   0  0  0  0  0  0  0  0  0  0  0  0
  136.3845  149.5925  140.9275 C   0  0  0  0  0  0  0  0  0  0  0  0
  1  2  1  0
  2  3  1  0
  2  4  2  0
  4  5  1  0
  5  6  2  0
  3  7  1  0
  5  8  1  0
  3  9  2  0
  6  9  1  0
M  END
$$$$

     RDKit          3D

  9  9  0  0  0  0  0  0  0  0999 V2000
  138.9700  151.3142  142.5680 C   0  0  0  0  0  0  0  0  0  0  0  0
  138.6028  152.0888  143.2649 C   0  0  0  0  0  0  0  0  0  0  0  0
  137.4885  151.7627  144.1910 C   0  0  0  0  0  0  0  0  0  0  0  0
  137.1685  150.4112  144.2718 C   0  0  0  0  0  0  0  0  0  0  0  0
  136.7824  152.6364  145.0888 C   0  0  0  0  0  0  0  0  0  0  0  0
  138.5870  149.8397  142.4014 C   0  0  0  0  0  0  0  0  0  0  0  0
  139.0806  148.9858  141.5391 C   0  0  0  0  0  0  0  0  0  0  0  0
  137.7542  149.4794  143.3258 N   0  0  0  0  0  0  0  0  0  0  0  0
  135.5027  152.3505  145.5741 C   0  0  0  0  0  0  0  0  0  0  0  0
  1  2  1  0
  2  3  2  0
  3  4  1  0
  3  5  1  0
  1  6  2  0
  6  7  1  0
  4  8  2  0
  6  8  1  0
  5  9  1  0
M  END
$$$$

     RDKit          3D

  9  9  0  0  0  0  0  0  0  0999 V2000
  138.9700  151.3142  142.5680 C   0  0  0  0  0  0  0  0  0  0  0  0
  138.6028  152.0888  143.2649 C   0  0  0  0  0  0  0  0  0  0  0  0
  139.7534  151.4391  141.3513 C   0  0  0  0  0  0  0  0  0  0  0  0
  137.7662  151.7110  144.3568 C   0  0  0  0  0  0  0  0  0  0  0  0
  139.7149  150.4739  140.2505 C   0  0  0  0  0  0  0  0  0  0  0  0
  138.3412  149.8433  142.7841 C   0  0  0  0  0  0  0  0  0  0  0  0
  137.2853  152.7078  145.3000 C   0  0  0  0  0  0  0  0  0  0  0  0
  137.6050  150.1240  143.8930 C   0  0  0  0  0  0  0  0  0  0  0  0
  140.3436  150.5009  139.2207 C   0  0  0  0  0  0  0  0  0  0  0  0
  1  2  1  0
  1  3  1  0
  2  4  2  0
  3  5  2  3
  1  6  2  0
  4  7  1  0
  4  8  1  0
  6  8  1  0
  5  9  1  0
M  END
$$$$

     RDKit          3D

  9  9  0  0  0  0  0  0  0  0999 V2000
  138.9700  151.3142  142.5680 C   0  0  0  0  0  0  0  0  0  0  0  0
  138.6028  152.0888  143.2649 C   0  0  0  0  0  0  0  0  0  0  0  0
  137.4885  151.7627  144.1910 C   0  0  0  0  0  0  0  0  0  0  0  0
  139.9946  151.3890  141.4262 C   0  0  0  0  0  0  0  0  0  0  0  0
  138.3608  149.9235  142.4650 C   0  0  0  0  0  0  0  0  0  0  0  0
  137.0230  150.4835  144.0945 C   0  0  0  0  0  0  0  0  0  0  0  0
  137.4311  149.5411  143.3703 C   0  0  0  0  0  0  0  0  0  0  0  0
  139.7515  150.8716  140.2592 C   0  0  0  0  0  0  0  0  0  0  0  0
  136.9300  152.7708  145.0863 C   0  0  0  0  0  0  0  0  0  0  0  0
  1  2  1  0
  2  3  2  0
  1  4  1  0
  1  5  2  0
  3  6  1  0
  5  7  1  0
  6  7  2  0
  4  8  1  0
  3  9  1  0
M  END
$$$$

     RDKit          3D

  9  8  0  0  0  0  0  0  0  0999 V2000
  140.3043  150.2153  139.4787 Cl  0  0  0  0  0  0  0  0  0  0  0  0
  138.6777  150.1901  140.5340 C   0  0  0  0  0  0  0  0  0  0  0  0
  137.6379  149.3864  140.0971 C   0  0  0  0  0  0  0  0  0  0  0  0
  138.7740  150.9330  141.6513 C   0  0  0  0  0  0  0  0  0  0  0  0
  137.6926  150.8816  142.5542 C   0  0  0  0  0  0  0  0  0  0  0  0
  137.6662  148.8824  138.7129 C   0  0  0  0  0  0  0  0  0  0  0  0
  137.8476  151.4110  143.9165 C   0  0  0  0  0  0  0  0  0  0  0  0
  139.0368  151.6888  144.4263 C   0  0  0  0  0  0  0  0  0  0  0  0
  136.9334  152.4524  144.2753 C   0  0  0  0  0  0  0  0  0  0  0  0
  1  2  1  0
  2  3  1  0
  2  4  2  3
  4  5  1  0
  3  6  1  0
  5  7  1  0
  7  8  1  0
  7  9  1  0
M  END
$$$$

     RDKit          3D

  9  9  0  0  0  0  0  0  0  0999 V2000
  139.3443  149.9938  140.5872 C   0  0  0  0  0  0  0  0  0  0  0  0
  138.9756  149.9372  139.3587 C   0  0  0  0  0  0  0  0  0  0  0  0
  138.5880  150.0764  141.6359 C   0  0  0  0  0  0  0  0  0  0  0  0
  137.2185  149.9023  141.8334 C   0  0  0  0  0  0  0  0  0  0  0  0
  136.4599  150.2366  142.9654 C   0  0  0  0  0  0  0  0  0  0  0  0
  137.3621  150.7752  143.9548 C   0  0  0  0  0  0  0  0  0  0  0  0
  139.0024  150.5404  143.0721 C   0  0  0  0  0  0  0  0  0  0  0  0
  140.6968  150.4042  140.6966 C   0  0  0  0  0  0  0  0  0  0  0  0
  137.2706  151.3095  145.0288 C   0  0  0  0  0  0  0  0  0  0  0  0
  1  2  2  0
  1  3  1  0
  3  4  1  0
  4  5  2  0
  5  6  1  0
  3  7  1  0
  6  7  1  0
  1  8  1  0
  6  9  2  0
M  END
$$$$

     RDKit          3D

  9  8  0  0  0  0  0  0  0  0999 V2000
  138.9700  151.3142  142.5680 C   0  0  0  0  0  0  0  0  0  0  0  0
  138.6028  152.0888  143.2649 C   0  0  0  0  0  0  0  0  0  0  0  0
  137.5195  151.8267  144.2012 C   0  0  0  0  0  0  0  0  0  0  0  0
  139.9498  151.4195  141.4376 C   0  0  0  0  0  0  0  0  0  0  0  0
  139.7010  150.7438  140.2830 C   0  0  0  0  0  0  0  0  0  0  0  0
  137.4900  150.6433  144.9371 C   0  0  0  0  0  0  0  0  0  0  0  0
  136.8185  152.7922  144.8493 C   0  0  0  0  0  0  0  0  0  0  0  0
  135.4230  152.5666  145.2135 C   0  0  0  0  0  0  0  0  0  0  0  0
  134.6000  153.4541  145.6811 C   0  0  0  0  0  0  0  0  0  0  0  0
  1  2  2  3
  2  3  1  0
  1  4  1  0
  4  5  1  0
  3  6  1  0
  3  7  2  3
  7  8  1  0
  8  9  1  0
M  END
$$$$

     RDKit          3D

  9  9  0  0  0  0  0  0  0  0999 V2000
  139.0001  149.7637  140.3651 C   0  0  0  0  0  0  0  0  0  0  0  0
  138.7140  149.5447  139.1253 C   0  0  0  0  0  0  0  0  0  0  0  0
  138.1593  150.1004  141.2813 C   0  0  0  0  0  0  0  0  0  0  0  0
  137.3241  149.5797  138.6751 C   0  0  0  0  0  0  0  0  0  0  0  0
  137.0147  149.1376  137.4380 O   0  0  0  0  0  0  0  0  0  0  0  0
  136.4780  149.5881  139.6902 C   0  0  0  0  0  0  0  0  0  0  0  0
  135.0268  149.6288  139.5329 O   0  0  0  0  0  0  0  0  0  0  0  0
  136.8570  150.0256  141.1048 C   0  0  0  0  0  0  0  0  0  0  0  0
  138.6405  150.5391  142.8365 Cl  0  0  0  0  0  0  0  0  0  0  0  0
  1  2  2  0
  1  3  1  0
  2  4  1  0
  4  5  1  0
  4  6  2  0
  6  7  1  0
  3  8  2  0
  6  8  1  0
  3  9  1  0
M  END
$$$$

     RDKit          3D

  9  9  0  0  0  0  0  0  0  0999 V2000
  138.9700  151.3142  142.5680 C   0  0  0  0  0  0  0  0  0  0  0  0
  138.6028  152.0888  143.2649 C   0  0  0  0  0  0  0  0  0  0  0  0
  139.7534  151.4391  141.3513 C   0  0  0  0  0  0  0  0  0  0  0  0
  137.5434  151.8486  144.3752 C   0  0  0  0  0  0  0  0  0  0  0  0
  137.4057  150.5855  144.6897 C   0  0  0  0  0  0  0  0  0  0  0  0
  139.5846  150.4504  140.3545 C   0  0  0  0  0  0  0  0  0  0  0  0
  138.6911  149.4437  140.7439 C   0  0  0  0  0  0  0  0  0  0  0  0
  138.3508  149.9638  142.4893 C   0  0  0  0  0  0  0  0  0  0  0  0
  136.8789  152.8994  145.0741 C   0  0  0  0  0  0  0  0  0  0  0  0
  1  2  1  0
  1  3  1  0
  2  4  1  0
  4  5  2  0
  3  6  2  0
  6  7  1  0
  1  8  2  0
  7  8  1  0
  4  9  1  0
M  END
$$$$

     RDKit          3D

  9  9  0  0  0  0  0  0  0  0999 V2000
  139.0001  149.7637  140.3651 C   0  0  0  0  0  0  0  0  0  0  0  0
  139.7625  150.8547  140.7365 C   0  0  0  0  0  0  0  0  0  0  0  0
  139.2601  149.1451  139.1752 C   0  0  0  0  0  0  0  0  0  0  0  0
  139.5453  151.5155  142.0088 C   0  0  0  0  0  0  0  0  0  0  0  0
  138.4617  150.9908  142.6968 C   0  0  0  0  0  0  0  0  0  0  0  0
  137.8912  149.5529  141.2220 C   0  0  0  0  0  0  0  0  0  0  0  0
  136.9643  148.5574  140.5970 C   0  0  0  0  0  0  0  0  0  0  0  0
  137.7463  150.2537  142.5793 C   0  0  0  0  0  0  0  0  0  0  0  0
  138.3215  151.8014  144.1694 C   0  0  0  0  0  0  0  0  0  0  0  0
  1  2  2  0
  1  3  1  0
  2  4  1  0
  4  5  2  0
  1  6  1  0
  6  7  1  0
  5  8  1  0
  6  8  2  0
  5  9  1  0
M  END
$$$$

     RDKit          3D

  9  9  0  0  0  0  0  0  0  0999 V2000
  138.9700  151.3142  142.5680 C   0  0  0  0  0  0  0  0  0  0  0  0
  138.6028  152.0888  143.2649 C   0  0  0  0  0  0  0  0  0  0  0  0
  137.6281  151.7065  144.0688 C   0  0  0  0  0  0  0  0  0  0  0  0
  137.2565  150.3581  144.1219 C   0  0  0  0  0  0  0  0  0  0  0  0
  136.9628  152.5453  145.1713 C   0  0  0  0  0  0  0  0  0  0  0  0
  138.5360  149.9277  142.4177 C   0  0  0  0  0  0  0  0  0  0  0  0
  137.1896  153.7807  145.1664 C   0  0  0  0  0  0  0  0  0  0  0  0
  136.3635  149.9130  145.2198 C   0  0  0  0  0  0  0  0  0  0  0  0
  137.7195  149.3986  143.3493 N   0  0  0  0  0  0  0  0  0  0  0  0
  1  2  1  0
  2  3  2  0
  3  4  1  0
  3  5  1  0
  1  6  2  0
  5  7  2  0
  4  8  1  0
  4  9  2  0
  6  9  1  0
M  END
$$$$

     RDKit          3D

  9  9  0  0  0  0  0  0  0  0999 V2000
  139.3443  149.9938  140.5872 C   0  0  0  0  0  0  0  0  0  0  0  0
  138.9756  149.9372  139.3587 C   0  0  0  0  0  0  0  0  0  0  0  0
  138.5880  150.0764  141.6359 C   0  0  0  0  0  0  0  0  0  0  0  0
  137.2185  149.9023  141.8334 C   0  0  0  0  0  0  0  0  0  0  0  0
  136.5002  149.8297  140.5761 C   0  0  0  0  0  0  0  0  0  0  0  0
  137.4741  149.7259  139.0641 C   0  0  0  0  0  0  0  0  0  0  0  0
  139.1760  150.3120  143.0765 C   0  0  0  0  0  0  0  0  0  0  0  0
  138.5536  150.4795  144.2088 C   0  0  0  0  0  0  0  0  0  0  0  0
  137.7256  151.3643  144.4543 C   0  0  0  0  0  0  0  0  0  0  0  0
  1  2  2  0
  1  3  1  0
  3  4  1  0
  4  5  2  0
  2  6  1  0
  5  6  1  0
  3  7  2  3
  7  8  1  0
  8  9  2  0
M  END
$$$$

     RDKit          3D

  9  9  0  0  0  0  0  0  0  0999 V2000
  139.2617  151.0924  142.4042 C   0  0  0  0  0  0  0  0  0  0  0  0
  138.8616  152.1308  142.9030 C   0  0  0  0  0  0  0  0  0  0  0  0
  137.9129  151.7989  143.7815 C   0  0  0  0  0  0  0  0  0  0  0  0
  138.8296  150.4005  141.6037 C   0  0  0  0  0  0  0  0  0  0  0  0
  137.2795  150.5116  143.6586 C   0  0  0  0  0  0  0  0  0  0  0  0
  139.3647  149.8221  140.3408 C   0  0  0  0  0  0  0  0  0  0  0  0
  140.5310  149.7146  139.9599 C   0  0  0  0  0  0  0  0  0  0  0  0
  137.6005  149.8156  142.3167 C   0  0  0  0  0  0  0  0  0  0  0  0
  140.9155  149.9587  138.5819 C   0  0  0  0  0  0  0  0  0  0  0  0
  1  2  1  0
  2  3  2  0
  1  4  2  0
  3  5  1  0
  4  6  1  0
  6  7  1  0
  4  8  1  0
  5  8  2  0
  7  9  2  0
M  END
$$$$

     RDKit          3D

  9  9  0  0  0  0  0  0  0  0999 V2000
  139.2617  151.0924  142.4042 C   0  0  0  0  0  0  0  0  0  0  0  0
  138.8616  152.1308  142.9030 C   0  0  0  0  0  0  0  0  0  0  0  0
  137.9129  151.7989  143.7815 C   0  0  0  0  0  0  0  0  0  0  0  0
  138.8296  150.4005  141.6037 C   0  0  0  0  0  0  0  0  0  0  0  0
  137.2795  150.5116  143.6586 C   0  0  0  0  0  0  0  0  0  0  0  0
  139.3647  149.8221  140.3408 C   0  0  0  0  0  0  0  0  0  0  0  0
  140.5310  149.7146  139.9599 C   0  0  0  0  0  0  0  0  0  0  0  0
  137.6005  149.8156  142.3167 C   0  0  0  0  0  0  0  0  0  0  0  0
  140.8762  150.6369  138.8806 C   0  0  0  0  0  0  0  0  0  0  0  0
  1  2  1  0
  2  3  2  0
  1  4  2  0
  3  5  1  0
  4  6  1  0
  6  7  1  0
  4  8  1  0
  5  8  2  0
  7  9  1  0
M  END
$$$$

     RDKit          3D

  9  9  0  0  0  0  0  0  0  0999 V2000
  138.9700  151.3142  142.5680 C   0  0  0  0  0  0  0  0  0  0  0  0
  138.6028  152.0888  143.2649 C   0  0  0  0  0  0  0  0  0  0  0  0
  137.6281  151.7065  144.0688 C   0  0  0  0  0  0  0  0  0  0  0  0
  137.2565  150.3581  144.1219 C   0  0  0  0  0  0  0  0  0  0  0  0
  136.8409  152.5498  145.0799 C   0  0  0  0  0  0  0  0  0  0  0  0
  138.5512  149.9188  142.4326 C   0  0  0  0  0  0  0  0  0  0  0  0
  137.1166  153.7952  145.1649 C   0  0  0  0  0  0  0  0  0  0  0  0
  136.1012  151.9437  145.5889 O   0  0  0  0  0  0  0  0  0  0  0  0
  137.7761  149.4048  143.2792 C   0  0  0  0  0  0  0  0  0  0  0  0
  1  2  1  0
  2  3  2  0
  3  4  1  0
  3  5  1  0
  1  6  2  0
  5  7  1  0
  5  8  2  0
  4  9  2  0
  6  9  1  0
M  END
$$$$

     RDKit          3D

  9  9  0  0  0  0  0  0  0  0999 V2000
  138.9700  151.3142  142.5680 C   0  0  0  0  0  0  0  0  0  0  0  0
  138.6028  152.0888  143.2649 C   0  0  0  0  0  0  0  0  0  0  0  0
  137.4885  151.7627  144.1910 C   0  0  0  0  0  0  0  0  0  0  0  0
  139.9946  151.3890  141.4262 C   0  0  0  0  0  0  0  0  0  0  0  0
  138.3608  149.9235  142.4650 C   0  0  0  0  0  0  0  0  0  0  0  0
  137.0230  150.4835  144.0945 C   0  0  0  0  0  0  0  0  0  0  0  0
  137.4311  149.5411  143.3703 C   0  0  0  0  0  0  0  0  0  0  0  0
  139.7515  150.8716  140.2592 C   0  0  0  0  0  0  0  0  0  0  0  0
  136.8603  152.8716  145.2664 Cl  0  0  0  0  0  0  0  0  0  0  0  0
  1  2  1  0
  2  3  2  0
  1  4  1  0
  1  5  2  0
  3  6  1  0
  5  7  1  0
  6  7  2  0
  4  8  1  0
  3  9  1  0
M  END
$$$$

     RDKit          3D

  9  9  0  0  0  0  0  0  0  0999 V2000
  138.7241  151.5757  143.3192 C   0  0  0  0  0  0  0  0  0  0  0  0
  137.9190  152.3259  143.7537 C   0  0  0  0  0  0  0  0  0  0  0  0
  136.7519  151.8077  144.4387 C   0  0  0  0  0  0  0  0  0  0  0  0
  136.7823  150.4615  144.6818 C   0  0  0  0  0  0  0  0  0  0  0  0
  135.6814  152.5441  145.0287 C   0  0  0  0  0  0  0  0  0  0  0  0
  138.4862  150.1701  143.2501 C   0  0  0  0  0  0  0  0  0  0  0  0
  139.3642  149.2722  142.5490 C   0  0  0  0  0  0  0  0  0  0  0  0
  137.5118  149.6208  144.0773 C   0  0  0  0  0  0  0  0  0  0  0  0
  134.6593  152.0659  145.8374 C   0  0  0  0  0  0  0  0  0  0  0  0
  1  2  1  0
  2  3  2  0
  3  4  1  0
  3  5  1  0
  1  6  2  0
  6  7  1  0
  4  8  2  0
  6  8  1  0
  5  9  1  0
M  END
$$$$

     RDKit          3D

  9  9  0  0  0  0  0  0  0  0999 V2000
  138.7241  151.5757  143.3192 C   0  0  0  0  0  0  0  0  0  0  0  0
  137.9190  152.3259  143.7537 C   0  0  0  0  0  0  0  0  0  0  0  0
  136.7519  151.8077  144.4387 C   0  0  0  0  0  0  0  0  0  0  0  0
  138.5728  150.7614  142.3615 C   0  0  0  0  0  0  0  0  0  0  0  0
  136.5049  150.5076  144.1699 C   0  0  0  0  0  0  0  0  0  0  0  0
  137.6888  149.6609  142.4410 C   0  0  0  0  0  0  0  0  0  0  0  0
  136.7013  149.6005  143.3456 C   0  0  0  0  0  0  0  0  0  0  0  0
  139.7624  150.4012  141.3362 C   0  0  0  0  0  0  0  0  0  0  0  0
  135.7872  152.5943  145.3814 C   0  0  0  0  0  0  0  0  0  0  0  0
  1  2  1  0
  2  3  2  0
  1  4  2  0
  3  5  1  0
  4  6  1  0
  5  7  2  0
  6  7  1  0
  4  8  1  0
  3  9  1  0
M  END
$$$$

     RDKit          3D

  9  9  0  0  0  0  0  0  0  0999 V2000
  139.2617  151.0924  142.4042 C   0  0  0  0  0  0  0  0  0  0  0  0
  138.8616  152.1308  142.9030 C   0  0  0  0  0  0  0  0  0  0  0  0
  137.7833  151.8925  143.8931 C   0  0  0  0  0  0  0  0  0  0  0  0
  137.3594  150.5408  144.0624 C   0  0  0  0  0  0  0  0  0  0  0  0
  136.3237  150.4660  145.1229 C   0  0  0  0  0  0  0  0  0  0  0  0
  139.4734  150.9231  141.2211 C   0  0  0  0  0  0  0  0  0  0  0  0
  135.5792  151.6427  145.4493 C   0  0  0  0  0  0  0  0  0  0  0  0
  136.0491  152.8281  145.0174 C   0  0  0  0  0  0  0  0  0  0  0  0
  137.0771  152.9271  144.3484 C   0  0  0  0  0  0  0  0  0  0  0  0
  1  2  1  0
  2  3  2  3
  3  4  1  0
  4  5  2  0
  1  6  2  0
  5  7  1  0
  7  8  2  0
  3  9  1  0
  8  9  1  0
M  END
$$$$

     RDKit          3D

 10 11  0  0  0  0  0  0  0  0999 V2000
  139.5351  150.8912  142.2316 C   0  0  0  0  0  0  0  0  0  0  0  0
  138.9995  151.9980  142.6388 C   0  0  0  0  0  0  0  0  0  0  0  0
  138.9552  149.6528  142.4249 C   0  0  0  0  0  0  0  0  0  0  0  0
  138.2659  151.9676  143.7024 C   0  0  0  0  0  0  0  0  0  0  0  0
  137.8639  153.0934  144.4531 C   0  0  0  0  0  0  0  0  0  0  0  0
  136.5003  152.9647  144.9316 C   0  0  0  0  0  0  0  0  0  0  0  0
  137.5761  150.6272  144.0314 C   0  0  0  0  0  0  0  0  0  0  0  0
  135.6922  151.8808  144.9957 C   0  0  0  0  0  0  0  0  0  0  0  0
  137.6216  149.5089  143.2139 C   0  0  0  0  0  0  0  0  0  0  0  0
  136.4148  150.6788  144.9184 C   0  0  0  0  0  0  0  0  0  0  0  0
  1  2  2  0
  1  3  1  0
  2  4  1  0
  4  5  1  0
  5  6  2  0
  4  7  2  0
  6  8  1  0
  3  9  2  0
  7  9  1  0
  7 10  1  0
  8 10  2  0
M  END
$$$$

     RDKit          3D

 10 10  0  0  0  0  0  0  0  0999 V2000
  139.3952  150.7507  142.0137 C   0  0  0  0  0  0  0  0  0  0  0  0
  139.0644  150.4897  140.7536 C   0  0  0  0  0  0  0  0  0  0  0  0
  138.4483  150.6369  143.0431 C   0  0  0  0  0  0  0  0  0  0  0  0
  137.8331  149.9861  140.4382 C   0  0  0  0  0  0  0  0  0  0  0  0
  136.8982  149.7660  141.3331 C   0  0  0  0  0  0  0  0  0  0  0  0
  138.7726  151.0467  144.4230 C   0  0  0  0  0  0  0  0  0  0  0  0
  137.5964  151.6401  145.1163 C   0  0  0  0  0  0  0  0  0  0  0  0
  137.0143  150.3310  142.6679 C   0  0  0  0  0  0  0  0  0  0  0  0
  136.6278  151.4496  145.6747 C   0  0  0  0  0  0  0  0  0  0  0  0
  140.2145  150.6544  139.5850 C   0  0  0  0  0  0  0  0  0  0  0  0
  1  2  2  0
  1  3  1  0
  2  4  1  0
  4  5  2  0
  3  6  1  0
  6  7  2  3
  3  8  2  0
  5  8  1  0
  7  9  1  0
  2 10  1  0
M  END
$$$$

     RDKit          3D

 10 10  0  0  0  0  0  0  0  0999 V2000
  139.2617  151.0924  142.4042 C   0  0  0  0  0  0  0  0  0  0  0  0
  138.8616  152.1308  142.9030 C   0  0  0  0  0  0  0  0  0  0  0  0
  137.7833  151.8925  143.8931 C   0  0  0  0  0  0  0  0  0  0  0  0
  138.6297  149.7785  142.4972 C   0  0  0  0  0  0  0  0  0  0  0  0
  137.3056  153.0085  144.6640 C   0  0  0  0  0  0  0  0  0  0  0  0
  136.1522  152.9010  145.2283 C   0  0  0  0  0  0  0  0  0  0  0  0
  137.2289  150.4748  143.9698 C   0  0  0  0  0  0  0  0  0  0  0  0
  137.6756  149.5511  143.4247 C   0  0  0  0  0  0  0  0  0  0  0  0
  135.3071  151.7728  145.4097 C   0  0  0  0  0  0  0  0  0  0  0  0
  134.1845  151.7632  146.0935 C   0  0  0  0  0  0  0  0  0  0  0  0
  1  2  1  0
  2  3  2  0
  1  4  2  0
  3  5  1  0
  5  6  2  3
  3  7  1  0
  4  8  1  0
  7  8  2  0
  6  9  1  0
  9 10  1  0
M  END
$$$$

     RDKit          3D

 10 10  0  0  0  0  0  0  0  0999 V2000
  140.3043  150.2153  139.4787 Cl  0  0  0  0  0  0  0  0  0  0  0  0
  138.6777  150.1901  140.5340 C   0  0  0  0  0  0  0  0  0  0  0  0
  137.6379  149.3864  140.0971 C   0  0  0  0  0  0  0  0  0  0  0  0
  138.7740  150.9330  141.6513 C   0  0  0  0  0  0  0  0  0  0  0  0
  137.6926  150.8816  142.5542 C   0  0  0  0  0  0  0  0  0  0  0  0
  137.8475  151.5161  143.9010 C   0  0  0  0  0  0  0  0  0  0  0  0
  136.6428  150.1161  142.0733 C   0  0  0  0  0  0  0  0  0  0  0  0
  138.8541  152.0576  144.3014 O   0  0  0  0  0  0  0  0  0  0  0  0
  136.8912  151.4770  144.8122 N   0  0  0  0  0  0  0  0  0  0  0  0
  136.4933  149.5611  140.8692 C   0  0  0  0  0  0  0  0  0  0  0  0
  1  2  1  0
  2  3  1  0
  2  4  2  0
  4  5  1  0
  5  6  1  0
  5  7  2  0
  6  8  2  0
  6  9  1  0
  3 10  2  0
  7 10  1  0
M  END
$$$$

     RDKit          3D

 10 11  0  0  0  0  0  0  0  0999 V2000
  138.9700  151.3142  142.5680 C   0  0  0  0  0  0  0  0  0  0  0  0
  138.6028  152.0888  143.2649 C   0  0  0  0  0  0  0  0  0  0  0  0
  137.6613  151.8314  144.0472 C   0  0  0  0  0  0  0  0  0  0  0  0
  137.3606  150.3947  144.4745 C   0  0  0  0  0  0  0  0  0  0  0  0
  136.9250  152.6805  145.0998 C   0  0  0  0  0  0  0  0  0  0  0  0
  138.5827  149.8819  142.6558 C   0  0  0  0  0  0  0  0  0  0  0  0
  136.5546  150.0609  145.6029 C   0  0  0  0  0  0  0  0  0  0  0  0
  137.8469  149.4709  143.6453 N   0  0  0  0  0  0  0  0  0  0  0  0
  135.9850  152.2969  145.9407 C   0  0  0  0  0  0  0  0  0  0  0  0
  135.9000  150.9557  146.3284 C   0  0  0  0  0  0  0  0  0  0  0  0
  1  2  2  0
  2  3  1  0
  3  4  2  0
  3  5  1  0
  1  6  1  0
  4  7  1  0
  4  8  1  0
  6  8  2  0
  5  9  2  0
  7 10  2  0
  9 10  1  0
M  END
$$$$

     RDKit          3D

 10 10  0  0  0  0  0  0  0  0999 V2000
  138.9700  151.3142  142.5680 C   0  0  0  0  0  0  0  0  0  0  0  0
  138.6028  152.0888  143.2649 C   0  0  0  0  0  0  0  0  0  0  0  0
  137.4885  151.7627  144.1910 C   0  0  0  0  0  0  0  0  0  0  0  0
  139.9946  151.3890  141.4262 C   0  0  0  0  0  0  0  0  0  0  0  0
  139.7086  150.7368  140.2224 C   0  0  0  0  0  0  0  0  0  0  0  0
  138.1634  149.9576  142.6721 C   0  0  0  0  0  0  0  0  0  0  0  0
  138.8326  149.7048  140.1224 C   0  0  0  0  0  0  0  0  0  0  0  0
  138.4905  149.1587  138.8400 C   0  0  0  0  0  0  0  0  0  0  0  0
  136.9825  152.6588  145.1966 C   0  0  0  0  0  0  0  0  0  0  0  0
  137.1220  150.4878  143.9539 C   0  0  0  0  0  0  0  0  0  0  0  0
  1  2  1  0
  2  3  2  0
  1  4  1  0
  4  5  2  3
  1  6  2  0
  5  7  1  0
  7  8  1  0
  3  9  1  0
  3 10  1  0
  6 10  1  0
M  END
$$$$

     RDKit          3D

 10 10  0  0  0  0  0  0  0  0999 V2000
  139.3443  149.9938  140.5872 C   0  0  0  0  0  0  0  0  0  0  0  0
  138.9756  149.9372  139.3587 C   0  0  0  0  0  0  0  0  0  0  0  0
  138.5880  150.0764  141.6359 C   0  0  0  0  0  0  0  0  0  0  0  0
  137.2185  149.9023  141.8334 C   0  0  0  0  0  0  0  0  0  0  0  0
  136.5002  149.8297  140.5761 C   0  0  0  0  0  0  0  0  0  0  0  0
  137.4378  149.7561  139.1744 C   0  0  0  0  0  0  0  0  0  0  0  0
  139.1235  150.3440  143.1006 C   0  0  0  0  0  0  0  0  0  0  0  0
  138.5688  150.2673  144.2524 C   0  0  0  0  0  0  0  0  0  0  0  0
  137.6163  151.1967  144.5868 C   0  0  0  0  0  0  0  0  0  0  0  0
  137.7326  152.5268  144.3919 C   0  0  0  0  0  0  0  0  0  0  0  0
  1  2  2  0
  1  3  1  0
  3  4  1  0
  4  5  2  0
  2  6  1  0
  5  6  1  0
  3  7  2  3
  7  8  1  0
  8  9  1  0
  9 10  2  0
M  END
$$$$

     RDKit          3D

 10 10  0  0  0  0  0  0  0  0999 V2000
  138.7241  151.5757  143.3192 C   0  0  0  0  0  0  0  0  0  0  0  0
  137.9190  152.3259  143.7537 C   0  0  0  0  0  0  0  0  0  0  0  0
  136.7519  151.8077  144.4387 C   0  0  0  0  0  0  0  0  0  0  0  0
  136.7823  150.4615  144.6818 C   0  0  0  0  0  0  0  0  0  0  0  0
  135.7184  152.5072  144.9787 C   0  0  0  0  0  0  0  0  0  0  0  0
  138.4930  150.1677  143.2342 C   0  0  0  0  0  0  0  0  0  0  0  0
  139.3550  149.2637  142.5228 O   0  0  0  0  0  0  0  0  0  0  0  0
  134.7654  151.9453  145.7460 C   0  0  0  0  0  0  0  0  0  0  0  0
  139.6560  149.6531  141.2218 C   0  0  0  0  0  0  0  0  0  0  0  0
  137.5587  149.5566  144.0045 C   0  0  0  0  0  0  0  0  0  0  0  0
  1  2  1  0
  2  3  2  0
  3  4  1  0
  3  5  1  0
  1  6  2  0
  6  7  1  0
  5  8  1  0
  7  9  1  0
  4 10  2  0
  6 10  1  0
M  END
$$$$

     RDKit          3D

 10 10  0  0  0  0  0  0  0  0999 V2000
  138.9700  151.3142  142.5680 C   0  0  0  0  0  0  0  0  0  0  0  0
  138.6028  152.0888  143.2649 C   0  0  0  0  0  0  0  0  0  0  0  0
  137.6613  151.8314  144.0472 C   0  0  0  0  0  0  0  0  0  0  0  0
  138.4079  149.9012  142.6349 C   0  0  0  0  0  0  0  0  0  0  0  0
  137.0744  152.8689  144.9698 C   0  0  0  0  0  0  0  0  0  0  0  0
  136.9520  150.6107  144.2097 C   0  0  0  0  0  0  0  0  0  0  0  0
  140.0485  151.4545  141.4482 C   0  0  0  0  0  0  0  0  0  0  0  0
  137.5429  149.5965  143.5640 C   0  0  0  0  0  0  0  0  0  0  0  0
  135.7992  152.7853  145.5498 C   0  0  0  0  0  0  0  0  0  0  0  0
  139.9185  150.5470  140.3439 C   0  0  0  0  0  0  0  0  0  0  0  0
  1  2  2  0
  2  3  1  0
  1  4  1  0
  3  5  1  0
  3  6  2  0
  1  7  1  0
  4  8  2  0
  6  8  1  0
  5  9  2  0
  7 10  1  0
M  END
$$$$

     RDKit          3D

 10 10  0  0  0  0  0  0  0  0999 V2000
  138.9700  151.3142  142.5680 C   0  0  0  0  0  0  0  0  0  0  0  0
  138.6028  152.0888  143.2649 C   0  0  0  0  0  0  0  0  0  0  0  0
  139.7534  151.4391  141.3513 C   0  0  0  0  0  0  0  0  0  0  0  0
  137.7662  151.7110  144.3568 C   0  0  0  0  0  0  0  0  0  0  0  0
  139.7149  150.4739  140.2505 C   0  0  0  0  0  0  0  0  0  0  0  0
  138.3412  149.8433  142.7841 C   0  0  0  0  0  0  0  0  0  0  0  0
  137.2853  152.7078  145.3000 O   0  0  0  0  0  0  0  0  0  0  0  0
  137.4166  150.3661  144.3188 C   0  0  0  0  0  0  0  0  0  0  0  0
  140.3378  150.4955  139.2537 C   0  0  0  0  0  0  0  0  0  0  0  0
  136.7619  153.7977  144.8952 C   0  0  0  0  0  0  0  0  0  0  0  0
  1  2  1  0
  1  3  1  0
  2  4  2  0
  3  5  2  3
  1  6  2  0
  4  7  1  0
  4  8  1  0
  6  8  1  0
  5  9  1  0
  7 10  1  0
M  END
$$$$

     RDKit          3D

 10 11  0  0  0  0  0  0  0  0999 V2000
  139.2617  151.0924  142.4042 C   0  0  0  0  0  0  0  0  0  0  0  0
  138.8616  152.1308  142.9030 C   0  0  0  0  0  0  0  0  0  0  0  0
  137.9129  151.7989  143.7815 C   0  0  0  0  0  0  0  0  0  0  0  0
  138.8296  150.4005  141.6037 C   0  0  0  0  0  0  0  0  0  0  0  0
  137.6678  149.9540  141.7617 C   0  0  0  0  0  0  0  0  0  0  0  0
  136.8343  150.9146  143.3909 C   0  0  0  0  0  0  0  0  0  0  0  0
  136.6249  150.1718  142.5687 C   0  0  0  0  0  0  0  0  0  0  0  0
  135.7460  151.2707  144.5561 C   0  0  0  0  0  0  0  0  0  0  0  0
  136.0385  151.9836  145.5458 C   0  0  0  0  0  0  0  0  0  0  0  0
  137.4997  152.6508  145.0325 C   0  0  0  0  0  0  0  0  0  0  0  0
  1  2  1  0
  2  3  2  0
  1  4  2  0
  4  5  1  0
  3  6  1  0
  5  7  2  0
  6  7  1  0
  6  8  1  0
  8  9  2  0
  3 10  1  0
  9 10  1  0
M  END
$$$$

     RDKit          3D

 10 10  0  0  0  0  0  0  0  0999 V2000
  138.7241  151.5757  143.3192 C   0  0  0  0  0  0  0  0  0  0  0  0
  137.9190  152.3259  143.7537 C   0  0  0  0  0  0  0  0  0  0  0  0
  136.7519  151.8077  144.4387 C   0  0  0  0  0  0  0  0  0  0  0  0
  136.7823  150.4615  144.6818 C   0  0  0  0  0  0  0  0  0  0  0  0
  135.7184  152.5072  144.9787 C   0  0  0  0  0  0  0  0  0  0  0  0
  138.4930  150.1677  143.2342 C   0  0  0  0  0  0  0  0  0  0  0  0
  135.6438  153.7445  145.2264 C   0  0  0  0  0  0  0  0  0  0  0  0
  137.6073  149.5824  144.1280 C   0  0  0  0  0  0  0  0  0  0  0  0
  134.8839  151.8880  145.9092 C   0  0  0  0  0  0  0  0  0  0  0  0
  133.9362  152.7474  146.4977 C   0  0  0  0  0  0  0  0  0  0  0  0
  1  2  1  0
  2  3  2  0
  3  4  1  0
  3  5  1  0
  1  6  2  0
  5  7  1  0
  4  8  2  0
  6  8  1  0
  5  9  2  3
  9 10  1  0
M  END
$$$$

     RDKit          3D

 10 10  0  0  0  0  0  0  0  0999 V2000
  140.3043  150.2153  139.4787 Cl  0  0  0  0  0  0  0  0  0  0  0  0
  138.6777  150.1901  140.5340 C   0  0  0  0  0  0  0  0  0  0  0  0
  137.6379  149.3864  140.0971 C   0  0  0  0  0  0  0  0  0  0  0  0
  138.7740  150.9330  141.6513 C   0  0  0  0  0  0  0  0  0  0  0  0
  138.1503  150.9121  142.4451 C   0  0  0  0  0  0  0  0  0  0  0  0
  136.8417  150.0645  142.3201 C   0  0  0  0  0  0  0  0  0  0  0  0
  138.1330  151.4989  144.2134 Cl  0  0  0  0  0  0  0  0  0  0  0  0
  135.8207  150.1806  143.2878 C   0  0  0  0  0  0  0  0  0  0  0  0
  137.5619  148.8570  138.8718 C   0  0  0  0  0  0  0  0  0  0  0  0
  136.5271  149.4960  141.1005 C   0  0  0  0  0  0  0  0  0  0  0  0
  1  2  1  0
  2  3  1  0
  2  4  2  0
  4  5  1  0
  5  6  2  0
  5  7  1  0
  6  8  1  0
  3  9  1  0
  3 10  2  0
  6 10  1  0
M  END
$$$$

     RDKit          3D

 10 10  0  0  0  0  0  0  0  0999 V2000
  138.9700  151.3142  142.5680 C   0  0  0  0  0  0  0  0  0  0  0  0
  138.6028  152.0888  143.2649 C   0  0  0  0  0  0  0  0  0  0  0  0
  137.4885  151.7627  144.1910 C   0  0  0  0  0  0  0  0  0  0  0  0
  139.9946  151.3890  141.4262 C   0  0  0  0  0  0  0  0  0  0  0  0
  139.7086  150.7368  140.2224 C   0  0  0  0  0  0  0  0  0  0  0  0
  138.1634  149.9576  142.6721 C   0  0  0  0  0  0  0  0  0  0  0  0
  137.0108  150.8102  144.2299 C   0  0  0  0  0  0  0  0  0  0  0  0
  137.0593  153.0344  145.0740 C   0  0  0  0  0  0  0  0  0  0  0  0
  137.3343  149.6678  143.5851 C   0  0  0  0  0  0  0  0  0  0  0  0
  135.7920  152.9381  145.6589 C   0  0  0  0  0  0  0  0  0  0  0  0
  1  2  1  0
  2  3  2  0
  1  4  1  0
  4  5  2  0
  1  6  2  0
  3  7  1  0
  3  8  1  0
  6  9  1  0
  7  9  2  0
  8 10  2  0
M  END
$$$$

     RDKit          3D

 10 10  0  0  0  0  0  0  0  0999 V2000
  139.2617  151.0924  142.4042 C   0  0  0  0  0  0  0  0  0  0  0  0
  138.8616  152.1308  142.9030 C   0  0  0  0  0  0  0  0  0  0  0  0
  137.9129  151.7989  143.7815 C   0  0  0  0  0  0  0  0  0  0  0  0
  138.8296  150.4005  141.6037 C   0  0  0  0  0  0  0  0  0  0  0  0
  137.6678  149.9540  141.7617 C   0  0  0  0  0  0  0  0  0  0  0  0
  136.8343  150.9146  143.3909 C   0  0  0  0  0  0  0  0  0  0  0  0
  137.1435  149.1542  140.5066 C   0  0  0  0  0  0  0  0  0  0  0  0
  136.6358  150.2488  142.5603 C   0  0  0  0  0  0  0  0  0  0  0  0
  135.7368  151.0182  144.6107 C   0  0  0  0  0  0  0  0  0  0  0  0
  135.8313  152.0036  145.4505 O   0  0  0  0  0  0  0  0  0  0  0  0
  1  2  1  0
  2  3  2  0
  1  4  2  0
  4  5  1  0
  3  6  1  0
  5  7  1  0
  5  8  2  0
  6  8  1  0
  6  9  1  0
  9 10  1  0
M  END
$$$$

     RDKit          3D

 10 11  0  0  0  0  0  0  0  0999 V2000
  138.7088  151.1469  142.6270 C   0  0  0  0  0  0  0  0  0  0  0  0
  138.5262  151.9374  143.5115 C   0  0  0  0  0  0  0  0  0  0  0  0
  137.3922  151.8105  144.0744 C   0  0  0  0  0  0  0  0  0  0  0  0
  136.5951  150.6201  143.9738 C   0  0  0  0  0  0  0  0  0  0  0  0
  137.9799  149.9622  142.2560 C   0  0  0  0  0  0  0  0  0  0  0  0
  136.5087  152.7504  145.0878 C   0  0  0  0  0  0  0  0  0  0  0  0
  136.8352  153.9867  145.0815 C   0  0  0  0  0  0  0  0  0  0  0  0
  135.4954  150.3735  144.8101 C   0  0  0  0  0  0  0  0  0  0  0  0
  135.4918  152.0683  145.5575 C   0  0  0  0  0  0  0  0  0  0  0  0
  136.9960  149.6718  142.9978 C   0  0  0  0  0  0  0  0  0  0  0  0
  1  2  1  0
  2  3  2  0
  3  4  1  0
  1  5  2  0
  3  6  1  0
  6  7  1  0
  4  8  1  0
  6  9  2  0
  8  9  1  0
  4 10  2  0
  5 10  1  0
M  END
$$$$

     RDKit          3D

 10 10  0  0  0  0  0  0  0  0999 V2000
  138.9700  151.3142  142.5680 C   0  0  0  0  0  0  0  0  0  0  0  0
  138.6028  152.0888  143.2649 C   0  0  0  0  0  0  0  0  0  0  0  0
  139.7534  151.4391  141.3513 C   0  0  0  0  0  0  0  0  0  0  0  0
  137.7662  151.7110  144.3568 C   0  0  0  0  0  0  0  0  0  0  0  0
  139.7149  150.4739  140.2505 C   0  0  0  0  0  0  0  0  0  0  0  0
  138.6100  149.7575  142.5401 C   0  0  0  0  0  0  0  0  0  0  0  0
  137.5062  150.4005  144.5860 C   0  0  0  0  0  0  0  0  0  0  0  0
  136.7487  149.8979  145.6363 C   0  0  0  0  0  0  0  0  0  0  0  0
  137.8394  149.5178  143.5060 C   0  0  0  0  0  0  0  0  0  0  0  0
  140.5792  150.7623  139.0916 C   0  0  0  0  0  0  0  0  0  0  0  0
  1  2  1  0
  1  3  1  0
  2  4  2  0
  3  5  2  3
  1  6  2  0
  4  7  1  0
  7  8  1  0
  6  9  1  0
  7  9  2  0
  5 10  1  0
M  END
$$$$

     RDKit          3D

 10 10  0  0  0  0  0  0  0  0999 V2000
  138.9700  151.3142  142.5680 C   0  0  0  0  0  0  0  0  0  0  0  0
  138.6028  152.0888  143.2649 C   0  0  0  0  0  0  0  0  0  0  0  0
  137.4885  151.7627  144.1910 C   0  0  0  0  0  0  0  0  0  0  0  0
  139.9946  151.3890  141.4262 C   0  0  0  0  0  0  0  0  0  0  0  0
  137.1413  150.3696  144.0327 C   0  0  0  0  0  0  0  0  0  0  0  0
  138.4285  149.9931  142.3915 C   0  0  0  0  0  0  0  0  0  0  0  0
  136.7928  152.5100  145.0952 C   0  0  0  0  0  0  0  0  0  0  0  0
  135.5952  152.0646  145.6338 C   0  0  0  0  0  0  0  0  0  0  0  0
  137.5161  149.5224  143.2882 N   0  0  0  0  0  0  0  0  0  0  0  0
  139.7406  150.8321  140.2817 C   0  0  0  0  0  0  0  0  0  0  0  0
  1  2  1  0
  2  3  2  0
  1  4  1  0
  3  5  1  0
  1  6  2  0
  3  7  1  0
  7  8  1  0
  5  9  2  0
  6  9  1  0
  4 10  1  0
M  END
$$$$

     RDKit          3D

 10 10  0  0  0  0  0  0  0  0999 V2000
  138.7241  151.5757  143.3192 C   0  0  0  0  0  0  0  0  0  0  0  0
  137.9190  152.3259  143.7537 C   0  0  0  0  0  0  0  0  0  0  0  0
  136.7519  151.8077  144.4387 C   0  0  0  0  0  0  0  0  0  0  0  0
  136.7823  150.4615  144.6818 C   0  0  0  0  0  0  0  0  0  0  0  0
  135.7184  152.5072  144.9787 C   0  0  0  0  0  0  0  0  0  0  0  0
  138.4930  150.1677  143.2342 C   0  0  0  0  0  0  0  0  0  0  0  0
  139.3550  149.2637  142.5228 O   0  0  0  0  0  0  0  0  0  0  0  0
  134.7654  151.9453  145.7460 C   0  0  0  0  0  0  0  0  0  0  0  0
  139.6560  149.6531  141.2218 C   0  0  0  0  0  0  0  0  0  0  0  0
  137.7384  149.7198  143.9403 N   0  0  0  0  0  0  0  0  0  0  0  0
  1  2  1  0
  2  3  2  0
  3  4  1  0
  3  5  1  0
  1  6  2  0
  6  7  1  0
  5  8  1  0
  7  9  1  0
  4 10  2  0
  6 10  1  0
M  END
$$$$

     RDKit          3D

 10 10  0  0  0  0  0  0  0  0999 V2000
  140.3043  150.2153  139.4787 Cl  0  0  0  0  0  0  0  0  0  0  0  0
  138.6777  150.1901  140.5340 C   0  0  0  0  0  0  0  0  0  0  0  0
  137.6379  149.3864  140.0971 C   0  0  0  0  0  0  0  0  0  0  0  0
  138.7740  150.9330  141.6513 C   0  0  0  0  0  0  0  0  0  0  0  0
  137.6926  150.8816  142.5542 C   0  0  0  0  0  0  0  0  0  0  0  0
  137.8475  151.5161  143.9010 C   0  0  0  0  0  0  0  0  0  0  0  0
  136.6428  150.1161  142.0733 C   0  0  0  0  0  0  0  0  0  0  0  0
  138.8541  152.0576  144.3014 O   0  0  0  0  0  0  0  0  0  0  0  0
  136.8033  151.3918  144.6915 O   0  0  0  0  0  0  0  0  0  0  0  0
  136.4874  149.5513  140.8444 C   0  0  0  0  0  0  0  0  0  0  0  0
  1  2  1  0
  2  3  1  0
  2  4  2  0
  4  5  1  0
  5  6  1  0
  5  7  2  0
  6  8  2  0
  6  9  1  0
  3 10  2  0
  7 10  1  0
M  END
$$$$

     RDKit          3D

 10 10  0  0  0  0  0  0  0  0999 V2000
  139.2617  151.0924  142.4042 C   0  0  0  0  0  0  0  0  0  0  0  0
  138.8616  152.1308  142.9030 C   0  0  0  0  0  0  0  0  0  0  0  0
  137.9129  151.7989  143.7815 C   0  0  0  0  0  0  0  0  0  0  0  0
  138.8296  150.4005  141.6037 C   0  0  0  0  0  0  0  0  0  0  0  0
  137.6678  149.9540  141.7617 C   0  0  0  0  0  0  0  0  0  0  0  0
  136.8343  150.9146  143.3909 C   0  0  0  0  0  0  0  0  0  0  0  0
  137.1435  149.1542  140.5066 C   0  0  0  0  0  0  0  0  0  0  0  0
  136.6358  150.2488  142.5603 C   0  0  0  0  0  0  0  0  0  0  0  0
  135.7855  151.3033  144.5878 C   0  0  0  0  0  0  0  0  0  0  0  0
  136.0014  152.0938  145.4722 O   0  0  0  0  0  0  0  0  0  0  0  0
  1  2  1  0
  2  3  2  0
  1  4  2  0
  4  5  1  0
  3  6  1  0
  5  7  1  0
  5  8  2  0
  6  8  1  0
  6  9  1  0
  9 10  2  0
M  END
$$$$

     RDKit          3D

 10 10  0  0  0  0  0  0  0  0999 V2000
  138.7088  151.1469  142.6270 C   0  0  0  0  0  0  0  0  0  0  0  0
  138.5262  151.9374  143.5115 C   0  0  0  0  0  0  0  0  0  0  0  0
  137.3824  151.6595  144.3968 C   0  0  0  0  0  0  0  0  0  0  0  0
  139.6611  150.9772  141.6901 C   0  0  0  0  0  0  0  0  0  0  0  0
  136.7221  150.4806  143.9608 C   0  0  0  0  0  0  0  0  0  0  0  0
  139.3791  150.7043  140.2857 C   0  0  0  0  0  0  0  0  0  0  0  0
  138.0794  150.1982  140.1257 C   0  0  0  0  0  0  0  0  0  0  0  0
  135.5533  150.2107  144.7702 C   0  0  0  0  0  0  0  0  0  0  0  0
  137.3046  150.2310  142.7781 C   0  0  0  0  0  0  0  0  0  0  0  0
  137.6957  149.6376  138.8301 C   0  0  0  0  0  0  0  0  0  0  0  0
  1  2  1  0
  2  3  2  0
  1  4  1  0
  3  5  1  0
  4  6  2  3
  6  7  1  0
  5  8  1  0
  1  9  2  0
  5  9  2  0
  7 10  1  0
M  END
$$$$

     RDKit          3D

 10 10  0  0  0  0  0  0  0  0999 V2000
  140.3043  150.2153  139.4787 Cl  0  0  0  0  0  0  0  0  0  0  0  0
  138.6777  150.1901  140.5340 C   0  0  0  0  0  0  0  0  0  0  0  0
  137.6379  149.3864  140.0971 C   0  0  0  0  0  0  0  0  0  0  0  0
  138.7740  150.9330  141.6513 C   0  0  0  0  0  0  0  0  0  0  0  0
  137.6926  150.8816  142.5542 C   0  0  0  0  0  0  0  0  0  0  0  0
  137.8475  151.5161  143.9010 C   0  0  0  0  0  0  0  0  0  0  0  0
  136.6428  150.1161  142.0733 C   0  0  0  0  0  0  0  0  0  0  0  0
  136.6798  151.5240  144.7093 C   0  0  0  0  0  0  0  0  0  0  0  0
  136.4955  149.4513  140.7749 C   0  0  0  0  0  0  0  0  0  0  0  0
  136.3288  152.8091  145.3617 C   0  0  0  0  0  0  0  0  0  0  0  0
  1  2  1  0
  2  3  1  0
  2  4  2  0
  4  5  1  0
  5  6  1  0
  5  7  2  0
  6  8  1  0
  3  9  2  0
  7  9  1  0
  8 10  1  0
M  END
$$$$

     RDKit          3D

 10 10  0  0  0  0  0  0  0  0999 V2000
  140.3043  150.2153  139.4787 Cl  0  0  0  0  0  0  0  0  0  0  0  0
  138.6777  150.1901  140.5340 C   0  0  0  0  0  0  0  0  0  0  0  0
  137.6379  149.3864  140.0971 C   0  0  0  0  0  0  0  0  0  0  0  0
  138.7740  150.9330  141.6513 C   0  0  0  0  0  0  0  0  0  0  0  0
  138.1503  150.9121  142.4451 C   0  0  0  0  0  0  0  0  0  0  0  0
  138.2393  151.5036  143.8900 C   0  0  0  0  0  0  0  0  0  0  0  0
  136.9238  150.2035  142.6659 C   0  0  0  0  0  0  0  0  0  0  0  0
  136.0630  150.3375  143.8286 C   0  0  0  0  0  0  0  0  0  0  0  0
  136.6786  151.1342  144.7012 C   0  0  0  0  0  0  0  0  0  0  0  0
  136.4961  151.6655  145.9232 C   0  0  0  0  0  0  0  0  0  0  0  0
  1  2  1  0
  2  3  1  0
  2  4  2  3
  4  5  1  0
  5  6  1  0
  5  7  2  0
  7  8  1  0
  6  9  1  0
  8  9  2  0
  9 10  1  0
M  END
$$$$

     RDKit          3D

 10 10  0  0  0  0  0  0  0  0999 V2000
  139.5351  150.8912  142.2316 C   0  0  0  0  0  0  0  0  0  0  0  0
  139.0142  150.3967  141.0596 C   0  0  0  0  0  0  0  0  0  0  0  0
  138.6965  150.9512  143.4035 C   0  0  0  0  0  0  0  0  0  0  0  0
  137.7124  149.9443  141.0462 C   0  0  0  0  0  0  0  0  0  0  0  0
  136.8198  150.0024  142.1539 C   0  0  0  0  0  0  0  0  0  0  0  0
  137.3758  150.5812  143.3369 C   0  0  0  0  0  0  0  0  0  0  0  0
  136.4568  150.8528  144.7915 Cl  0  0  0  0  0  0  0  0  0  0  0  0
  139.8983  150.3734  139.7304 C   0  0  0  0  0  0  0  0  0  0  0  0
  141.2613  150.3817  139.9374 C   0  0  0  0  0  0  0  0  0  0  0  0
  139.4266  150.4116  138.8031 O   0  0  0  0  0  0  0  0  0  0  0  0
  1  2  2  0
  1  3  1  0
  2  4  1  0
  4  5  2  0
  3  6  2  0
  5  6  1  0
  6  7  1  0
  2  8  1  0
  8  9  1  0
  8 10  2  0
M  END
$$$$

     RDKit          3D

 10 10  0  0  0  0  0  0  0  0999 V2000
  138.7088  151.1469  142.6270 C   0  0  0  0  0  0  0  0  0  0  0  0
  138.5262  151.9374  143.5115 C   0  0  0  0  0  0  0  0  0  0  0  0
  137.3824  151.6595  144.3968 C   0  0  0  0  0  0  0  0  0  0  0  0
  139.6611  150.9772  141.6901 C   0  0  0  0  0  0  0  0  0  0  0  0
  136.7221  150.4806  143.9608 C   0  0  0  0  0  0  0  0  0  0  0  0
  139.3791  150.7043  140.2857 C   0  0  0  0  0  0  0  0  0  0  0  0
  137.4549  150.2128  142.4836 C   0  0  0  0  0  0  0  0  0  0  0  0
  136.9178  152.3564  145.5382 C   0  0  0  0  0  0  0  0  0  0  0  0
  138.1627  150.5265  139.8536 C   0  0  0  0  0  0  0  0  0  0  0  0
  140.6123  150.7199  139.4996 C   0  0  0  0  0  0  0  0  0  0  0  0
  1  2  1  0
  2  3  2  0
  1  4  1  0
  3  5  1  0
  4  6  2  3
  1  7  2  0
  5  7  1  0
  3  8  1  0
  6  9  1  0
  6 10  1  0
M  END
$$$$

     RDKit          3D

 10 10  0  0  0  0  0  0  0  0999 V2000
  140.3043  150.2153  139.4787 Cl  0  0  0  0  0  0  0  0  0  0  0  0
  138.6777  150.1901  140.5340 C   0  0  0  0  0  0  0  0  0  0  0  0
  137.6379  149.3864  140.0971 C   0  0  0  0  0  0  0  0  0  0  0  0
  138.7740  150.9330  141.6513 C   0  0  0  0  0  0  0  0  0  0  0  0
  138.1503  150.9121  142.4451 C   0  0  0  0  0  0  0  0  0  0  0  0
  136.8417  150.0645  142.3201 C   0  0  0  0  0  0  0  0  0  0  0  0
  135.8231  150.1830  143.3116 C   0  0  0  0  0  0  0  0  0  0  0  0
  137.4901  148.8589  138.8804 C   0  0  0  0  0  0  0  0  0  0  0  0
  136.5179  149.5034  141.0383 C   0  0  0  0  0  0  0  0  0  0  0  0
  138.2447  151.6158  143.8269 C   0  0  0  0  0  0  0  0  0  0  0  0
  1  2  1  0
  2  3  1  0
  2  4  2  0
  4  5  1  0
  5  6  2  0
  6  7  1  0
  3  8  1  0
  3  9  2  0
  6  9  1  0
  5 10  1  0
M  END
$$$$

     RDKit          3D

 10 10  0  0  0  0  0  0  0  0999 V2000
  140.3043  150.2153  139.4787 Cl  0  0  0  0  0  0  0  0  0  0  0  0
  138.6777  150.1901  140.5340 C   0  0  0  0  0  0  0  0  0  0  0  0
  137.6379  149.3864  140.0971 C   0  0  0  0  0  0  0  0  0  0  0  0
  138.7740  150.9330  141.6513 C   0  0  0  0  0  0  0  0  0  0  0  0
  138.1503  150.9121  142.4451 C   0  0  0  0  0  0  0  0  0  0  0  0
  138.2393  151.5036  143.8900 C   0  0  0  0  0  0  0  0  0  0  0  0
  136.9238  150.2035  142.6659 C   0  0  0  0  0  0  0  0  0  0  0  0
  136.0630  150.3375  143.8286 C   0  0  0  0  0  0  0  0  0  0  0  0
  137.6037  148.9501  138.8616 C   0  0  0  0  0  0  0  0  0  0  0  0
  137.1622  151.4209  144.6295 C   0  0  0  0  0  0  0  0  0  0  0  0
  1  2  1  0
  2  3  1  0
  2  4  2  3
  4  5  1  0
  5  6  1  0
  5  7  2  0
  7  8  1  0
  3  9  1  0
  6 10  2  0
  8 10  1  0
M  END
$$$$

     RDKit          3D

 10 10  0  0  0  0  0  0  0  0999 V2000
  138.7241  151.5757  143.3192 C   0  0  0  0  0  0  0  0  0  0  0  0
  137.9190  152.3259  143.7537 C   0  0  0  0  0  0  0  0  0  0  0  0
  136.7519  151.8077  144.4387 C   0  0  0  0  0  0  0  0  0  0  0  0
  138.5728  150.7614  142.3615 C   0  0  0  0  0  0  0  0  0  0  0  0
  136.5049  150.5076  144.1699 C   0  0  0  0  0  0  0  0  0  0  0  0
  135.7701  152.4030  145.4631 C   0  0  0  0  0  0  0  0  0  0  0  0
  139.4962  150.3860  141.3303 C   0  0  0  0  0  0  0  0  0  0  0  0
  137.3497  150.0283  142.4620 C   0  0  0  0  0  0  0  0  0  0  0  0
  136.5257  149.7541  143.3041 C   0  0  0  0  0  0  0  0  0  0  0  0
  139.7778  150.6621  140.3959 C   0  0  0  0  0  0  0  0  0  0  0  0
  1  2  1  0
  2  3  2  0
  1  4  2  0
  3  5  1  0
  3  6  1  0
  4  7  1  0
  4  8  1  0
  5  9  2  0
  8  9  1  0
  7 10  3  0
M  END
$$$$

     RDKit          3D

 10 10  0  0  0  0  0  0  0  0999 V2000
  139.5351  150.8912  142.2316 C   0  0  0  0  0  0  0  0  0  0  0  0
  139.0142  150.3967  141.0596 C   0  0  0  0  0  0  0  0  0  0  0  0
  138.6965  150.9512  143.4035 C   0  0  0  0  0  0  0  0  0  0  0  0
  137.7124  149.9443  141.0462 C   0  0  0  0  0  0  0  0  0  0  0  0
  137.3875  150.5394  143.3309 C   0  0  0  0  0  0  0  0  0  0  0  0
  136.8222  150.1203  142.4163 C   0  0  0  0  0  0  0  0  0  0  0  0
  136.5519  150.7943  144.6107 C   0  0  0  0  0  0  0  0  0  0  0  0
  139.8526  150.3565  139.7621 C   0  0  0  0  0  0  0  0  0  0  0  0
  139.3076  150.3334  138.5983 C   0  0  0  0  0  0  0  0  0  0  0  0
  141.2069  150.4439  140.0284 C   0  0  0  0  0  0  0  0  0  0  0  0
  1  2  2  0
  1  3  1  0
  2  4  1  0
  3  5  2  0
  4  6  2  0
  5  6  1  0
  5  7  1  0
  2  8  1  0
  8  9  1  0
  8 10  2  0
M  END
$$$$

     RDKit          3D

 10 10  0  0  0  0  0  0  0  0999 V2000
  139.2617  151.0924  142.4042 C   0  0  0  0  0  0  0  0  0  0  0  0
  138.8616  152.1308  142.9030 C   0  0  0  0  0  0  0  0  0  0  0  0
  137.9129  151.7989  143.7815 C   0  0  0  0  0  0  0  0  0  0  0  0
  138.8296  150.4005  141.6037 C   0  0  0  0  0  0  0  0  0  0  0  0
  137.6678  149.9540  141.7617 C   0  0  0  0  0  0  0  0  0  0  0  0
  136.8343  150.9146  143.3909 C   0  0  0  0  0  0  0  0  0  0  0  0
  137.1435  149.1542  140.5066 C   0  0  0  0  0  0  0  0  0  0  0  0
  136.6358  150.2488  142.5603 C   0  0  0  0  0  0  0  0  0  0  0  0
  135.7368  151.0182  144.6107 C   0  0  0  0  0  0  0  0  0  0  0  0
  135.8814  150.6240  145.7464 C   0  0  0  0  0  0  0  0  0  0  0  0
  1  2  1  0
  2  3  2  0
  1  4  2  0
  4  5  1  0
  3  6  1  0
  5  7  1  0
  5  8  2  0
  6  8  1  0
  6  9  1  0
  9 10  1  0
M  END
$$$$

     RDKit          3D

 10 10  0  0  0  0  0  0  0  0999 V2000
  138.9700  151.3142  142.5680 C   0  0  0  0  0  0  0  0  0  0  0  0
  138.6028  152.0888  143.2649 C   0  0  0  0  0  0  0  0  0  0  0  0
  137.6281  151.7065  144.0688 C   0  0  0  0  0  0  0  0  0  0  0  0
  140.0307  151.3229  141.4173 C   0  0  0  0  0  0  0  0  0  0  0  0
  137.1800  150.3202  143.8763 C   0  0  0  0  0  0  0  0  0  0  0  0
  139.6519  150.7702  140.2040 C   0  0  0  0  0  0  0  0  0  0  0  0
  140.4651  150.8109  139.0462 C   0  0  0  0  0  0  0  0  0  0  0  0
  138.2717  149.9309  142.4074 C   0  0  0  0  0  0  0  0  0  0  0  0
  137.4828  149.5091  143.2619 C   0  0  0  0  0  0  0  0  0  0  0  0
  136.9236  152.7774  145.2502 Cl  0  0  0  0  0  0  0  0  0  0  0  0
  1  2  1  0
  2  3  2  0
  1  4  1  0
  3  5  1  0
  4  6  2  3
  6  7  1  0
  1  8  2  0
  5  9  2  0
  8  9  1  0
  3 10  1  0
M  END
$$$$

     RDKit          3D

 10 11  0  0  0  0  0  0  0  0999 V2000
  139.3443  149.9938  140.5872 C   0  0  0  0  0  0  0  0  0  0  0  0
  138.9756  149.9372  139.3587 C   0  0  0  0  0  0  0  0  0  0  0  0
  138.5880  150.0764  141.6359 C   0  0  0  0  0  0  0  0  0  0  0  0
  137.2185  149.9023  141.8334 C   0  0  0  0  0  0  0  0  0  0  0  0
  136.5002  149.8297  140.5761 C   0  0  0  0  0  0  0  0  0  0  0  0
  139.1863  150.3537  143.1491 C   0  0  0  0  0  0  0  0  0  0  0  0
  138.2367  150.9497  144.0909 C   0  0  0  0  0  0  0  0  0  0  0  0
  137.4074  149.7389  139.1996 C   0  0  0  0  0  0  0  0  0  0  0  0
  136.5775  150.3942  142.9538 N   0  0  0  0  0  0  0  0  0  0  0  0
  136.9924  150.7471  144.0164 C   0  0  0  0  0  0  0  0  0  0  0  0
  1  2  2  0
  1  3  1  0
  3  4  1  0
  4  5  2  0
  3  6  1  0
  6  7  2  0
  2  8  1  0
  5  8  1  0
  4  9  1  0
  7 10  1  0
  9 10  2  0
M  END
$$$$

     RDKit          3D

 10 11  0  0  0  0  0  0  0  0999 V2000
  138.9700  151.3142  142.5680 C   0  0  0  0  0  0  0  0  0  0  0  0
  138.6028  152.0888  143.2649 C   0  0  0  0  0  0  0  0  0  0  0  0
  137.4885  151.7627  144.1910 C   0  0  0  0  0  0  0  0  0  0  0  0
  139.9946  151.3890  141.4262 C   0  0  0  0  0  0  0  0  0  0  0  0
  139.7086  150.7368  140.2224 C   0  0  0  0  0  0  0  0  0  0  0  0
  138.1634  149.9576  142.6721 C   0  0  0  0  0  0  0  0  0  0  0  0
  138.8326  149.7048  140.1224 C   0  0  0  0  0  0  0  0  0  0  0  0
  137.8891  149.4489  141.1631 C   0  0  0  0  0  0  0  0  0  0  0  0
  137.4333  149.9804  143.7954 C   0  0  0  0  0  0  0  0  0  0  0  0
  136.9693  152.1606  145.3616 C   0  0  0  0  0  0  0  0  0  0  0  0
  1  2  1  0
  2  3  2  0
  1  4  1  0
  4  5  2  0
  1  6  2  0
  5  7  1  0
  6  8  1  0
  7  8  2  0
  3  9  1  0
  6  9  1  0
  3 10  1  0
M  END
$$$$

     RDKit          3D

 10 10  0  0  0  0  0  0  0  0999 V2000
  139.2617  151.0924  142.4042 C   0  0  0  0  0  0  0  0  0  0  0  0
  138.8616  152.1308  142.9030 C   0  0  0  0  0  0  0  0  0  0  0  0
  137.7833  151.8925  143.8931 C   0  0  0  0  0  0  0  0  0  0  0  0
  137.3594  150.5408  144.0624 C   0  0  0  0  0  0  0  0  0  0  0  0
  136.3237  150.4660  145.1229 C   0  0  0  0  0  0  0  0  0  0  0  0
  139.2662  149.7548  142.8052 C   0  0  0  0  0  0  0  0  0  0  0  0
  137.9821  149.5363  143.6363 C   0  0  0  0  0  0  0  0  0  0  0  0
  140.1177  151.3191  140.9834 C   0  0  0  0  0  0  0  0  0  0  0  0
  135.4221  151.3445  145.3588 C   0  0  0  0  0  0  0  0  0  0  0  0
  134.8762  152.1424  144.4912 C   0  0  0  0  0  0  0  0  0  0  0  0
  1  2  1  0
  2  3  2  0
  3  4  1  0
  4  5  2  3
  1  6  1  0
  4  7  1  0
  6  7  2  0
  1  8  1  0
  5  9  1  0
  9 10  2  0
M  END
$$$$

     RDKit          3D

 10 11  0  0  0  0  0  0  0  0999 V2000
  139.2617  151.0924  142.4042 C   0  0  0  0  0  0  0  0  0  0  0  0
  138.8616  152.1308  142.9030 C   0  0  0  0  0  0  0  0  0  0  0  0
  137.7833  151.8925  143.8931 C   0  0  0  0  0  0  0  0  0  0  0  0
  137.3594  150.5408  144.0624 C   0  0  0  0  0  0  0  0  0  0  0  0
  136.3237  150.4660  145.1229 C   0  0  0  0  0  0  0  0  0  0  0  0
  139.2662  149.7548  142.8052 C   0  0  0  0  0  0  0  0  0  0  0  0
  137.9821  149.5363  143.6363 C   0  0  0  0  0  0  0  0  0  0  0  0
  135.7431  151.6428  145.3945 C   0  0  0  0  0  0  0  0  0  0  0  0
  136.9313  152.8329  144.5592 C   0  0  0  0  0  0  0  0  0  0  0  0
  140.0753  151.4088  140.9982 C   0  0  0  0  0  0  0  0  0  0  0  0
  1  2  1  0
  2  3  2  0
  3  4  1  0
  4  5  2  0
  1  6  1  0
  4  7  1  0
  6  7  2  0
  5  8  1  0
  3  9  1  0
  8  9  2  0
  1 10  1  0
M  END
$$$$

     RDKit          3D

 10 10  0  0  0  0  0  0  0  0999 V2000
  139.0001  149.7637  140.3651 C   0  0  0  0  0  0  0  0  0  0  0  0
  138.7140  149.5447  139.1253 C   0  0  0  0  0  0  0  0  0  0  0  0
  138.1593  150.1004  141.2813 C   0  0  0  0  0  0  0  0  0  0  0  0
  137.3241  149.5797  138.6751 C   0  0  0  0  0  0  0  0  0  0  0  0
  136.4644  149.5491  139.6303 C   0  0  0  0  0  0  0  0  0  0  0  0
  138.5755  150.4940  142.6471 C   0  0  0  0  0  0  0  0  0  0  0  0
  135.0085  149.6106  139.4557 O   0  0  0  0  0  0  0  0  0  0  0  0
  137.6846  150.8385  143.6636 C   0  0  0  0  0  0  0  0  0  0  0  0
  138.0964  151.3184  144.9609 C   0  0  0  0  0  0  0  0  0  0  0  0
  136.7716  150.0235  141.0356 C   0  0  0  0  0  0  0  0  0  0  0  0
  1  2  2  0
  1  3  1  0
  2  4  1  0
  4  5  2  0
  3  6  1  0
  5  7  1  0
  6  8  2  3
  8  9  1  0
  3 10  2  0
  5 10  1  0
M  END
$$$$

     RDKit          3D

 10 11  0  0  0  0  0  0  0  0999 V2000
  138.9700  151.3142  142.5680 C   0  0  0  0  0  0  0  0  0  0  0  0
  138.6028  152.0888  143.2649 C   0  0  0  0  0  0  0  0  0  0  0  0
  137.5195  151.8267  144.2012 C   0  0  0  0  0  0  0  0  0  0  0  0
  138.4543  149.8628  142.6423 C   0  0  0  0  0  0  0  0  0  0  0  0
  137.0498  152.8767  145.0309 C   0  0  0  0  0  0  0  0  0  0  0  0
  136.7891  150.8540  144.5580 C   0  0  0  0  0  0  0  0  0  0  0  0
  135.8880  150.5568  145.4671 C   0  0  0  0  0  0  0  0  0  0  0  0
  136.0751  152.9127  145.5726 C   0  0  0  0  0  0  0  0  0  0  0  0
  135.3960  151.7359  146.0393 C   0  0  0  0  0  0  0  0  0  0  0  0
  137.3672  149.6195  143.6582 C   0  0  0  0  0  0  0  0  0  0  0  0
  1  2  2  0
  2  3  1  0
  1  4  1  0
  3  5  1  0
  3  6  2  0
  6  7  1  0
  5  8  2  0
  7  9  2  0
  8  9  1  0
  4 10  1  0
  6 10  1  0
M  END
$$$$

     RDKit          3D

 10 11  0  0  0  0  0  0  0  0999 V2000
  138.9700  151.3142  142.5680 C   0  0  0  0  0  0  0  0  0  0  0  0
  138.6028  152.0888  143.2649 C   0  0  0  0  0  0  0  0  0  0  0  0
  137.6613  151.8314  144.0472 C   0  0  0  0  0  0  0  0  0  0  0  0
  136.5817  152.7482  144.5731 C   0  0  0  0  0  0  0  0  0  0  0  0
  135.5891  152.5118  145.5181 C   0  0  0  0  0  0  0  0  0  0  0  0
  135.7218  151.3867  146.1165 C   0  0  0  0  0  0  0  0  0  0  0  0
  138.3755  149.9775  142.6046 C   0  0  0  0  0  0  0  0  0  0  0  0
  137.2578  150.4300  144.1319 C   0  0  0  0  0  0  0  0  0  0  0  0
  137.7007  149.5920  143.5036 N   0  0  0  0  0  0  0  0  0  0  0  0
  136.3858  150.2883  145.4165 C   0  0  0  0  0  0  0  0  0  0  0  0
  1  2  2  0
  2  3  1  0
  3  4  1  0
  4  5  1  0
  5  6  2  0
  1  7  1  0
  3  8  2  0
  7  9  2  0
  8  9  1  0
  6 10  1  0
  8 10  1  0
M  END
$$$$

     RDKit          3D

 10 10  0  0  0  0  0  0  0  0999 V2000
  139.3443  149.9938  140.5872 C   0  0  0  0  0  0  0  0  0  0  0  0
  138.9756  149.9372  139.3587 C   0  0  0  0  0  0  0  0  0  0  0  0
  138.5880  150.0764  141.6359 C   0  0  0  0  0  0  0  0  0  0  0  0
  137.2185  149.9023  141.8334 C   0  0  0  0  0  0  0  0  0  0  0  0
  136.5002  149.8297  140.5761 C   0  0  0  0  0  0  0  0  0  0  0  0
  137.4378  149.7561  139.1744 C   0  0  0  0  0  0  0  0  0  0  0  0
  139.1235  150.3440  143.1006 C   0  0  0  0  0  0  0  0  0  0  0  0
  138.5688  150.2673  144.2524 C   0  0  0  0  0  0  0  0  0  0  0  0
  137.6163  151.1967  144.5868 C   0  0  0  0  0  0  0  0  0  0  0  0
  137.7326  152.5268  144.3919 C   0  0  0  0  0  0  0  0  0  0  0  0
  1  2  2  0
  1  3  1  0
  3  4  1  0
  4  5  2  0
  2  6  1  0
  5  6  1  0
  3  7  2  3
  7  8  1  0
  8  9  1  0
  9 10  1  0
M  END
$$$$

     RDKit          3D

 10 10  0  0  0  0  0  0  0  0999 V2000
  140.3043  150.2153  139.4787 Cl  0  0  0  0  0  0  0  0  0  0  0  0
  138.6777  150.1901  140.5340 C   0  0  0  0  0  0  0  0  0  0  0  0
  137.6379  149.3864  140.0971 C   0  0  0  0  0  0  0  0  0  0  0  0
  138.7740  150.9330  141.6513 C   0  0  0  0  0  0  0  0  0  0  0  0
  138.1503  150.9121  142.4451 C   0  0  0  0  0  0  0  0  0  0  0  0
  138.2393  151.5036  143.8900 C   0  0  0  0  0  0  0  0  0  0  0  0
  136.9238  150.2035  142.6659 C   0  0  0  0  0  0  0  0  0  0  0  0
  136.0630  150.3375  143.8286 C   0  0  0  0  0  0  0  0  0  0  0  0
  137.6037  148.9501  138.8616 C   0  0  0  0  0  0  0  0  0  0  0  0
  136.6977  151.1493  144.6805 C   0  0  0  0  0  0  0  0  0  0  0  0
  1  2  1  0
  2  3  1  0
  2  4  2  3
  4  5  1  0
  5  6  1  0
  5  7  2  0
  7  8  1  0
  3  9  2  0
  6 10  2  0
  8 10  2  0
M  END
$$$$

     RDKit          3D

 10 10  0  0  0  0  0  0  0  0999 V2000
  139.5351  150.8912  142.2316 C   0  0  0  0  0  0  0  0  0  0  0  0
  139.0142  150.3967  141.0596 C   0  0  0  0  0  0  0  0  0  0  0  0
  138.6965  150.9512  143.4035 C   0  0  0  0  0  0  0  0  0  0  0  0
  137.7124  149.9443  141.0462 C   0  0  0  0  0  0  0  0  0  0  0  0
  137.3875  150.5394  143.3309 C   0  0  0  0  0  0  0  0  0  0  0  0
  136.8222  150.1203  142.4163 C   0  0  0  0  0  0  0  0  0  0  0  0
  136.5519  150.7943  144.6107 C   0  0  0  0  0  0  0  0  0  0  0  0
  139.8526  150.3565  139.7621 C   0  0  0  0  0  0  0  0  0  0  0  0
  141.2453  150.3651  139.9530 C   0  0  0  0  0  0  0  0  0  0  0  0
  139.3936  150.3839  138.8174 O   0  0  0  0  0  0  0  0  0  0  0  0
  1  2  2  0
  1  3  1  0
  2  4  1  0
  3  5  2  0
  4  6  2  0
  5  6  1  0
  5  7  1  0
  2  8  1  0
  8  9  1  0
  8 10  2  0
M  END
$$$$

     RDKit          3D

 10 10  0  0  0  0  0  0  0  0999 V2000
  139.2617  151.0924  142.4042 C   0  0  0  0  0  0  0  0  0  0  0  0
  138.8616  152.1308  142.9030 C   0  0  0  0  0  0  0  0  0  0  0  0
  137.7833  151.8925  143.8931 C   0  0  0  0  0  0  0  0  0  0  0  0
  137.3594  150.5408  144.0624 C   0  0  0  0  0  0  0  0  0  0  0  0
  136.3237  150.4660  145.1229 C   0  0  0  0  0  0  0  0  0  0  0  0
  139.2662  149.7548  142.8052 C   0  0  0  0  0  0  0  0  0  0  0  0
  137.9620  149.6108  143.5780 C   0  0  0  0  0  0  0  0  0  0  0  0
  135.4256  151.3053  145.3510 C   0  0  0  0  0  0  0  0  0  0  0  0
  135.0692  152.2802  144.5357 C   0  0  0  0  0  0  0  0  0  0  0  0
  140.1012  151.3945  140.9766 C   0  0  0  0  0  0  0  0  0  0  0  0
  1  2  1  0
  2  3  2  0
  3  4  1  0
  4  5  2  3
  1  6  1  0
  4  7  1  0
  6  7  2  0
  5  8  1  0
  8  9  1  0
  1 10  1  0
M  END
$$$$

     RDKit          3D

 11 12  0  0  0  0  0  0  0  0999 V2000
  138.7241  151.5757  143.3192 C   0  0  0  0  0  0  0  0  0  0  0  0
  137.9190  152.3259  143.7537 C   0  0  0  0  0  0  0  0  0  0  0  0
  136.7519  151.8077  144.4387 C   0  0  0  0  0  0  0  0  0  0  0  0
  136.7823  150.4615  144.6818 C   0  0  0  0  0  0  0  0  0  0  0  0
  135.7184  152.5072  144.9787 C   0  0  0  0  0  0  0  0  0  0  0  0
  138.4930  150.1677  143.2342 C   0  0  0  0  0  0  0  0  0  0  0  0
  135.6438  153.7445  145.2264 C   0  0  0  0  0  0  0  0  0  0  0  0
  135.8814  149.9088  145.6568 C   0  0  0  0  0  0  0  0  0  0  0  0
  134.5885  151.7056  145.4186 C   0  0  0  0  0  0  0  0  0  0  0  0
  134.5932  150.3911  145.7735 C   0  0  0  0  0  0  0  0  0  0  0  0
  137.7347  149.5486  144.1520 N   0  0  0  0  0  0  0  0  0  0  0  0
  1  2  1  0
  2  3  2  0
  3  4  1  0
  3  5  1  0
  1  6  2  0
  5  7  1  0
  4  8  1  0
  5  9  2  0
  8 10  2  0
  9 10  1  0
  4 11  2  0
  6 11  1  0
M  END
$$$$

     RDKit          3D

 11 12  0  0  0  0  0  0  0  0999 V2000
  139.2617  151.0924  142.4042 C   0  0  0  0  0  0  0  0  0  0  0  0
  138.8616  152.1308  142.9030 C   0  0  0  0  0  0  0  0  0  0  0  0
  137.7833  151.8925  143.8931 C   0  0  0  0  0  0  0  0  0  0  0  0
  137.3594  150.5408  144.0624 C   0  0  0  0  0  0  0  0  0  0  0  0
  136.3237  150.4660  145.1229 C   0  0  0  0  0  0  0  0  0  0  0  0
  139.2662  149.7548  142.8052 C   0  0  0  0  0  0  0  0  0  0  0  0
  137.9821  149.5363  143.6363 C   0  0  0  0  0  0  0  0  0  0  0  0
  140.3469  151.2519  141.2880 C   0  0  0  0  0  0  0  0  0  0  0  0
  139.9596  150.5990  140.0061 C   0  0  0  0  0  0  0  0  0  0  0  0
  135.7286  151.5960  145.4288 C   0  0  0  0  0  0  0  0  0  0  0  0
  136.9167  152.8149  144.6539 C   0  0  0  0  0  0  0  0  0  0  0  0
  1  2  1  0
  2  3  2  0
  3  4  1  0
  4  5  2  0
  1  6  1  0
  4  7  1  0
  6  7  2  0
  1  8  1  0
  8  9  1  0
  5 10  1  0
  3 11  1  0
 10 11  2  0
M  END
$$$$

     RDKit          3D

 11 11  0  0  0  0  0  0  0  0999 V2000
  138.7241  151.5757  143.3192 C   0  0  0  0  0  0  0  0  0  0  0  0
  137.9190  152.3259  143.7537 C   0  0  0  0  0  0  0  0  0  0  0  0
  136.7519  151.8077  144.4387 C   0  0  0  0  0  0  0  0  0  0  0  0
  138.5728  150.7614  142.3615 C   0  0  0  0  0  0  0  0  0  0  0  0
  136.5049  150.5076  144.1699 C   0  0  0  0  0  0  0  0  0  0  0  0
  137.6888  149.6609  142.4410 C   0  0  0  0  0  0  0  0  0  0  0  0
  135.8875  152.6745  145.2839 C   0  0  0  0  0  0  0  0  0  0  0  0
  136.7166  149.5468  143.2977 C   0  0  0  0  0  0  0  0  0  0  0  0
  139.7104  150.4912  141.1830 C   0  0  0  0  0  0  0  0  0  0  0  0
  136.1020  154.0508  145.3817 C   0  0  0  0  0  0  0  0  0  0  0  0
  135.1929  152.0949  146.1233 C   0  0  0  0  0  0  0  0  0  0  0  0
  1  2  1  0
  2  3  2  0
  1  4  2  0
  3  5  1  0
  4  6  1  0
  3  7  1  0
  5  8  2  0
  6  8  2  0
  4  9  1  0
  7 10  1  0
  7 11  2  0
M  END
$$$$

     RDKit          3D

 11 12  0  0  0  0  0  0  0  0999 V2000
  139.2617  151.0924  142.4042 C   0  0  0  0  0  0  0  0  0  0  0  0
  138.8616  152.1308  142.9030 C   0  0  0  0  0  0  0  0  0  0  0  0
  137.9129  151.7989  143.7815 C   0  0  0  0  0  0  0  0  0  0  0  0
  138.8296  150.4005  141.6037 C   0  0  0  0  0  0  0  0  0  0  0  0
  137.6678  149.9540  141.7617 C   0  0  0  0  0  0  0  0  0  0  0  0
  136.7250  151.0131  143.4744 C   0  0  0  0  0  0  0  0  0  0  0  0
  136.5867  150.2886  142.5423 C   0  0  0  0  0  0  0  0  0  0  0  0
  135.8176  151.1668  144.5895 C   0  0  0  0  0  0  0  0  0  0  0  0
  135.9330  152.1142  145.5247 C   0  0  0  0  0  0  0  0  0  0  0  0
  137.5183  152.6465  145.0894 C   0  0  0  0  0  0  0  0  0  0  0  0
  139.6366  149.6672  140.4406 C   0  0  0  0  0  0  0  0  0  0  0  0
  1  2  1  0
  2  3  2  0
  1  4  2  0
  4  5  1  0
  3  6  1  0
  5  7  1  0
  6  7  1  0
  6  8  2  0
  8  9  1  0
  3 10  1  0
  9 10  2  0
  4 11  1  0
M  END
$$$$

     RDKit          3D

 11 11  0  0  0  0  0  0  0  0999 V2000
  139.2617  151.0924  142.4042 C   0  0  0  0  0  0  0  0  0  0  0  0
  138.8616  152.1308  142.9030 C   0  0  0  0  0  0  0  0  0  0  0  0
  137.7833  151.8925  143.8931 C   0  0  0  0  0  0  0  0  0  0  0  0
  137.3594  150.5408  144.0624 C   0  0  0  0  0  0  0  0  0  0  0  0
  136.3237  150.4660  145.1229 C   0  0  0  0  0  0  0  0  0  0  0  0
  139.2662  149.7548  142.8052 C   0  0  0  0  0  0  0  0  0  0  0  0
  140.1304  151.2937  141.1071 C   0  0  0  0  0  0  0  0  0  0  0  0
  140.2073  150.4764  140.1499 C   0  0  0  0  0  0  0  0  0  0  0  0
  138.1714  149.4555  143.6060 C   0  0  0  0  0  0  0  0  0  0  0  0
  135.4327  151.3355  145.3216 C   0  0  0  0  0  0  0  0  0  0  0  0
  135.1735  151.8952  146.6480 C   0  0  0  0  0  0  0  0  0  0  0  0
  1  2  1  0
  2  3  2  0
  3  4  1  0
  4  5  2  3
  1  6  1  0
  1  7  2  3
  7  8  1  0
  4  9  1  0
  6  9  2  0
  5 10  1  0
 10 11  1  0
M  END
$$$$

     RDKit          3D

 11 12  0  0  0  0  0  0  0  0999 V2000
  138.7088  151.1469  142.6270 C   0  0  0  0  0  0  0  0  0  0  0  0
  138.5262  151.9374  143.5115 C   0  0  0  0  0  0  0  0  0  0  0  0
  137.3922  151.8105  144.0744 C   0  0  0  0  0  0  0  0  0  0  0  0
  136.5951  150.6201  143.9738 C   0  0  0  0  0  0  0  0  0  0  0  0
  137.9799  149.9622  142.2560 C   0  0  0  0  0  0  0  0  0  0  0  0
  136.5087  152.7504  145.0878 C   0  0  0  0  0  0  0  0  0  0  0  0
  136.8352  153.9867  145.0815 C   0  0  0  0  0  0  0  0  0  0  0  0
  135.5519  152.1902  145.6064 C   0  0  0  0  0  0  0  0  0  0  0  0
  136.8569  149.7766  143.1590 C   0  0  0  0  0  0  0  0  0  0  0  0
  135.3600  150.9254  146.0242 C   0  0  0  0  0  0  0  0  0  0  0  0
  135.6981  150.0446  144.9328 C   0  0  0  0  0  0  0  0  0  0  0  0
  1  2  1  0
  2  3  2  0
  3  4  1  0
  1  5  2  0
  3  6  1  0
  6  7  1  0
  6  8  2  0
  4  9  2  0
  5  9  1  0
  8 10  1  0
  4 11  1  0
 10 11  2  0
M  END
$$$$

     RDKit          3D

 11 11  0  0  0  0  0  0  0  0999 V2000
  138.7241  151.5757  143.3192 C   0  0  0  0  0  0  0  0  0  0  0  0
  137.9190  152.3259  143.7537 C   0  0  0  0  0  0  0  0  0  0  0  0
  136.7519  151.8077  144.4387 C   0  0  0  0  0  0  0  0  0  0  0  0
  138.5728  150.7614  142.3615 C   0  0  0  0  0  0  0  0  0  0  0  0
  137.2355  150.1145  142.4838 C   0  0  0  0  0  0  0  0  0  0  0  0
  136.7065  149.1916  141.6230 C   0  0  0  0  0  0  0  0  0  0  0  0
  136.8024  149.8581  140.3300 C   0  0  0  0  0  0  0  0  0  0  0  0
  136.4126  150.5819  143.5420 C   0  0  0  0  0  0  0  0  0  0  0  0
  135.8373  152.4094  145.2412 C   0  0  0  0  0  0  0  0  0  0  0  0
  134.9656  151.6749  145.9853 C   0  0  0  0  0  0  0  0  0  0  0  0
  135.8607  153.4466  145.2737 O   0  0  0  0  0  0  0  0  0  0  0  0
  1  2  1  0
  2  3  2  0
  1  4  2  0
  4  5  1  0
  5  6  1  0
  6  7  1  0
  3  8  1  0
  5  8  2  0
  3  9  1  0
  9 10  1  0
  9 11  2  0
M  END
$$$$

     RDKit          3D

 11 12  0  0  0  0  0  0  0  0999 V2000
  139.3443  149.9938  140.5872 C   0  0  0  0  0  0  0  0  0  0  0  0
  138.9756  149.9372  139.3587 C   0  0  0  0  0  0  0  0  0  0  0  0
  138.5880  150.0764  141.6359 C   0  0  0  0  0  0  0  0  0  0  0  0
  137.6059  149.8647  139.0257 C   0  0  0  0  0  0  0  0  0  0  0  0
  137.1676  149.4968  137.7630 O   0  0  0  0  0  0  0  0  0  0  0  0
  136.5842  149.6761  139.7231 C   0  0  0  0  0  0  0  0  0  0  0  0
  139.1043  150.3500  143.0327 C   0  0  0  0  0  0  0  0  0  0  0  0
  138.4320  151.2968  143.7316 C   0  0  0  0  0  0  0  0  0  0  0  0
  137.3538  151.6103  143.5439 C   0  0  0  0  0  0  0  0  0  0  0  0
  136.6149  151.1963  142.3380 C   0  0  0  0  0  0  0  0  0  0  0  0
  137.2184  150.3794  141.4160 C   0  0  0  0  0  0  0  0  0  0  0  0
  1  2  2  0
  1  3  1  0
  2  4  1  0
  4  5  1  0
  4  6  2  0
  3  7  1  0
  7  8  2  0
  8  9  1  0
  9 10  2  0
  3 11  2  0
  6 11  1  0
 10 11  1  0
M  END
$$$$

     RDKit          3D

 11 12  0  0  0  0  0  0  0  0999 V2000
  139.3443  149.9938  140.5872 C   0  0  0  0  0  0  0  0  0  0  0  0
  138.9756  149.9372  139.3587 C   0  0  0  0  0  0  0  0  0  0  0  0
  138.5880  150.0764  141.6359 C   0  0  0  0  0  0  0  0  0  0  0  0
  137.6059  149.8647  139.0257 C   0  0  0  0  0  0  0  0  0  0  0  0
  139.0697  150.4801  142.9898 C   0  0  0  0  0  0  0  0  0  0  0  0
  138.1044  151.0378  143.9796 C   0  0  0  0  0  0  0  0  0  0  0  0
  136.8009  150.9156  143.5439 C   0  0  0  0  0  0  0  0  0  0  0  0
  137.1194  149.4433  137.8740 C   0  0  0  0  0  0  0  0  0  0  0  0
  136.8964  149.8267  140.1946 C   0  0  0  0  0  0  0  0  0  0  0  0
  136.4780  150.6553  142.2331 C   0  0  0  0  0  0  0  0  0  0  0  0
  137.2404  150.1740  141.4229 C   0  0  0  0  0  0  0  0  0  0  0  0
  1  2  2  0
  1  3  1  0
  2  4  1  0
  3  5  1  0
  5  6  2  0
  6  7  1  0
  4  8  1  0
  4  9  2  0
  7 10  2  0
  3 11  2  0
  9 11  1  0
 10 11  1  0
M  END
$$$$

     RDKit          3D

 11 11  0  0  0  0  0  0  0  0999 V2000
  139.2617  151.0924  142.4042 C   0  0  0  0  0  0  0  0  0  0  0  0
  138.8616  152.1308  142.9030 C   0  0  0  0  0  0  0  0  0  0  0  0
  137.7833  151.8925  143.8931 C   0  0  0  0  0  0  0  0  0  0  0  0
  137.3594  150.5408  144.0624 C   0  0  0  0  0  0  0  0  0  0  0  0
  136.3237  150.4660  145.1229 C   0  0  0  0  0  0  0  0  0  0  0  0
  139.2662  149.7548  142.8052 C   0  0  0  0  0  0  0  0  0  0  0  0
  137.9620  149.6108  143.5780 C   0  0  0  0  0  0  0  0  0  0  0  0
  135.4256  151.3053  145.3510 C   0  0  0  0  0  0  0  0  0  0  0  0
  135.0692  152.2802  144.5357 C   0  0  0  0  0  0  0  0  0  0  0  0
  140.2728  151.3055  141.2596 C   0  0  0  0  0  0  0  0  0  0  0  0
  139.8758  150.5145  139.9991 C   0  0  0  0  0  0  0  0  0  0  0  0
  1  2  1  0
  2  3  2  0
  3  4  1  0
  4  5  2  3
  1  6  1  0
  4  7  1  0
  6  7  2  0
  5  8  1  0
  8  9  1  0
  1 10  1  0
 10 11  1  0
M  END
$$$$

     RDKit          3D

 11 11  0  0  0  0  0  0  0  0999 V2000
  140.3043  150.2153  139.4787 Cl  0  0  0  0  0  0  0  0  0  0  0  0
  138.6777  150.1901  140.5340 C   0  0  0  0  0  0  0  0  0  0  0  0
  137.6379  149.3864  140.0971 C   0  0  0  0  0  0  0  0  0  0  0  0
  138.7740  150.9330  141.6513 C   0  0  0  0  0  0  0  0  0  0  0  0
  137.6926  150.8816  142.5542 C   0  0  0  0  0  0  0  0  0  0  0  0
  137.8475  151.5161  143.9010 C   0  0  0  0  0  0  0  0  0  0  0  0
  136.6428  150.1161  142.0733 C   0  0  0  0  0  0  0  0  0  0  0  0
  138.8541  152.0576  144.3014 O   0  0  0  0  0  0  0  0  0  0  0  0
  137.6135  148.7813  138.8994 C   0  0  0  0  0  0  0  0  0  0  0  0
  136.4303  149.5803  140.9868 C   0  0  0  0  0  0  0  0  0  0  0  0
  136.8265  151.4835  144.7621 N   0  0  0  0  0  0  0  0  0  0  0  0
  1  2  1  0
  2  3  1  0
  2  4  2  0
  4  5  1  0
  5  6  1  0
  5  7  2  0
  6  8  2  0
  3  9  1  0
  3 10  2  0
  7 10  1  0
  6 11  1  0
M  END
$$$$

     RDKit          3D

 11 12  0  0  0  0  0  0  0  0999 V2000
  139.5351  150.8912  142.2316 C   0  0  0  0  0  0  0  0  0  0  0  0
  138.9995  151.9980  142.6388 C   0  0  0  0  0  0  0  0  0  0  0  0
  138.9552  149.6528  142.4249 C   0  0  0  0  0  0  0  0  0  0  0  0
  137.7531  151.8934  143.4318 C   0  0  0  0  0  0  0  0  0  0  0  0
  137.3026  153.0162  144.1111 C   0  0  0  0  0  0  0  0  0  0  0  0
  136.3824  152.7492  145.0837 C   0  0  0  0  0  0  0  0  0  0  0  0
  136.0524  151.4309  145.3461 C   0  0  0  0  0  0  0  0  0  0  0  0
  137.3616  150.5132  143.8380 C   0  0  0  0  0  0  0  0  0  0  0  0
  137.9094  149.5251  143.3305 C   0  0  0  0  0  0  0  0  0  0  0  0
  135.7603  153.9170  145.6947 C   0  0  0  0  0  0  0  0  0  0  0  0
  136.6835  150.3933  144.6592 N   0  0  0  0  0  0  0  0  0  0  0  0
  1  2  2  0
  1  3  1  0
  2  4  1  0
  4  5  1  0
  5  6  2  0
  6  7  1  0
  4  8  2  0
  3  9  2  0
  8  9  1  0
  6 10  1  0
  7 11  2  0
  8 11  1  0
M  END
$$$$

     RDKit          3D

 11 12  0  0  0  0  0  0  0  0999 V2000
  138.9700  151.3142  142.5680 C   0  0  0  0  0  0  0  0  0  0  0  0
  138.6028  152.0888  143.2649 C   0  0  0  0  0  0  0  0  0  0  0  0
  139.7534  151.4391  141.3513 C   0  0  0  0  0  0  0  0  0  0  0  0
  137.7662  151.7110  144.3568 C   0  0  0  0  0  0  0  0  0  0  0  0
  137.3975  150.3259  144.2873 C   0  0  0  0  0  0  0  0  0  0  0  0
  139.5637  150.5074  140.3221 C   0  0  0  0  0  0  0  0  0  0  0  0
  138.2619  149.9003  142.7055 C   0  0  0  0  0  0  0  0  0  0  0  0
  138.8378  149.4444  140.3509 C   0  0  0  0  0  0  0  0  0  0  0  0
  137.6684  149.4629  143.4708 C   0  0  0  0  0  0  0  0  0  0  0  0
  138.4831  148.8107  139.1178 C   0  0  0  0  0  0  0  0  0  0  0  0
  138.2202  149.2357  141.5787 N   0  0  0  0  0  0  0  0  0  0  0  0
  1  2  1  0
  1  3  1  0
  2  4  2  0
  4  5  1  0
  3  6  2  0
  1  7  2  0
  6  8  1  0
  5  9  2  0
  7  9  1  0
  8 10  1  0
  7 11  1  0
  8 11  2  0
M  END
$$$$

     RDKit          3D

 11 11  0  0  0  0  0  0  0  0999 V2000
  139.5351  150.8912  142.2316 C   0  0  0  0  0  0  0  0  0  0  0  0
  139.0142  150.3967  141.0596 C   0  0  0  0  0  0  0  0  0  0  0  0
  138.6965  150.9512  143.4035 C   0  0  0  0  0  0  0  0  0  0  0  0
  137.7124  149.9443  141.0462 C   0  0  0  0  0  0  0  0  0  0  0  0
  137.5183  150.9356  143.4797 C   0  0  0  0  0  0  0  0  0  0  0  0
  136.8094  150.2381  142.2068 C   0  0  0  0  0  0  0  0  0  0  0  0
  139.8928  150.2556  139.7332 C   0  0  0  0  0  0  0  0  0  0  0  0
  141.2639  150.2306  139.9149 C   0  0  0  0  0  0  0  0  0  0  0  0
  136.5797  151.1332  144.5708 C   0  0  0  0  0  0  0  0  0  0  0  0
  139.3134  150.1874  138.6242 C   0  0  0  0  0  0  0  0  0  0  0  0
  139.8608  150.4203  137.5275 C   0  0  0  0  0  0  0  0  0  0  0  0
  1  2  2  0
  1  3  1  0
  2  4  1  0
  3  5  2  0
  4  6  2  0
  5  6  1  0
  2  7  1  0
  7  8  1  0
  5  9  1  0
  7 10  2  3
 10 11  1  0
M  END
$$$$

     RDKit          3D

 11 11  0  0  0  0  0  0  0  0999 V2000
  140.3043  150.2153  139.4787 Cl  0  0  0  0  0  0  0  0  0  0  0  0
  138.6777  150.1901  140.5340 C   0  0  0  0  0  0  0  0  0  0  0  0
  137.6379  149.3864  140.0971 C   0  0  0  0  0  0  0  0  0  0  0  0
  138.7740  150.9330  141.6513 C   0  0  0  0  0  0  0  0  0  0  0  0
  138.1503  150.9121  142.4451 C   0  0  0  0  0  0  0  0  0  0  0  0
  138.2393  151.5036  143.8900 C   0  0  0  0  0  0  0  0  0  0  0  0
  136.9238  150.2035  142.6659 C   0  0  0  0  0  0  0  0  0  0  0  0
  136.0630  150.3375  143.8286 C   0  0  0  0  0  0  0  0  0  0  0  0
  137.6037  148.9501  138.8616 C   0  0  0  0  0  0  0  0  0  0  0  0
  137.2831  151.4032  144.8207 C   0  0  0  0  0  0  0  0  0  0  0  0
  136.2966  150.9061  144.8917 C   0  0  0  0  0  0  0  0  0  0  0  0
  1  2  1  0
  2  3  1  0
  2  4  2  3
  4  5  1  0
  5  6  1  0
  5  7  2  0
  7  8  1  0
  3  9  2  0
  6 10  2  0
  8 11  2  0
 10 11  1  0
M  END
$$$$

     RDKit          3D

 11 12  0  0  0  0  0  0  0  0999 V2000
  139.3443  149.9938  140.5872 C   0  0  0  0  0  0  0  0  0  0  0  0
  138.9756  149.9372  139.3587 C   0  0  0  0  0  0  0  0  0  0  0  0
  138.5880  150.0764  141.6359 C   0  0  0  0  0  0  0  0  0  0  0  0
  137.2185  149.9023  141.8334 C   0  0  0  0  0  0  0  0  0  0  0  0
  136.5002  149.8297  140.5761 C   0  0  0  0  0  0  0  0  0  0  0  0
  139.1863  150.3537  143.1491 C   0  0  0  0  0  0  0  0  0  0  0  0
  138.2367  150.9497  144.0909 C   0  0  0  0  0  0  0  0  0  0  0  0
  135.0949  149.7516  140.3723 C   0  0  0  0  0  0  0  0  0  0  0  0
  139.7114  149.8676  138.1808 C   0  0  0  0  0  0  0  0  0  0  0  0
  136.8168  150.4041  143.1130 C   0  0  0  0  0  0  0  0  0  0  0  0
  137.3227  149.6613  139.4399 C   0  0  0  0  0  0  0  0  0  0  0  0
  1  2  2  0
  1  3  1  0
  3  4  1  0
  4  5  2  0
  3  6  1  0
  6  7  2  0
  5  8  1  0
  2  9  1  0
  4 10  1  0
  7 10  1  0
  2 11  1  0
  5 11  1  0
M  END
$$$$

     RDKit          3D

 11 12  0  0  0  0  0  0  0  0999 V2000
  138.9700  151.3142  142.5680 C   0  0  0  0  0  0  0  0  0  0  0  0
  138.6028  152.0888  143.2649 C   0  0  0  0  0  0  0  0  0  0  0  0
  137.6281  151.7065  144.0688 C   0  0  0  0  0  0  0  0  0  0  0  0
  140.0307  151.3229  141.4173 C   0  0  0  0  0  0  0  0  0  0  0  0
  138.3103  150.1088  142.4683 C   0  0  0  0  0  0  0  0  0  0  0  0
  137.1492  150.7560  144.0988 C   0  0  0  0  0  0  0  0  0  0  0  0
  137.3028  153.0259  145.0184 C   0  0  0  0  0  0  0  0  0  0  0  0
  137.4615  149.6678  143.3280 C   0  0  0  0  0  0  0  0  0  0  0  0
  139.8766  150.6085  140.2323 C   0  0  0  0  0  0  0  0  0  0  0  0
  138.9692  149.6708  140.0135 C   0  0  0  0  0  0  0  0  0  0  0  0
  138.4177  149.2457  141.2329 N   0  0  0  0  0  0  0  0  0  0  0  0
  1  2  1  0
  2  3  2  0
  1  4  1  0
  1  5  2  0
  3  6  1  0
  3  7  1  0
  5  8  1  0
  6  8  2  0
  4  9  2  0
  9 10  1  0
  5 11  1  0
 10 11  2  0
M  END
$$$$

     RDKit          3D

 11 12  0  0  0  0  0  0  0  0999 V2000
  139.2617  151.0924  142.4042 C   0  0  0  0  0  0  0  0  0  0  0  0
  138.8616  152.1308  142.9030 C   0  0  0  0  0  0  0  0  0  0  0  0
  137.7833  151.8925  143.8931 C   0  0  0  0  0  0  0  0  0  0  0  0
  138.6297  149.7785  142.4972 C   0  0  0  0  0  0  0  0  0  0  0  0
  137.3056  153.0085  144.6640 C   0  0  0  0  0  0  0  0  0  0  0  0
  136.0072  152.9008  145.3275 C   0  0  0  0  0  0  0  0  0  0  0  0
  137.0093  150.6750  144.2548 C   0  0  0  0  0  0  0  0  0  0  0  0
  136.0443  150.6353  145.1252 C   0  0  0  0  0  0  0  0  0  0  0  0
  137.7052  149.7620  143.4285 C   0  0  0  0  0  0  0  0  0  0  0  0
  135.6415  149.3859  145.5229 O   0  0  0  0  0  0  0  0  0  0  0  0
  135.5288  151.8133  145.6059 C   0  0  0  0  0  0  0  0  0  0  0  0
  1  2  1  0
  2  3  2  0
  1  4  2  0
  3  5  1  0
  5  6  2  0
  3  7  1  0
  7  8  1  0
  4  9  1  0
  7  9  2  0
  8 10  1  0
  6 11  1  0
  8 11  2  0
M  END
$$$$

     RDKit          3D

 11 12  0  0  0  0  0  0  0  0999 V2000
  139.3443  149.9938  140.5872 C   0  0  0  0  0  0  0  0  0  0  0  0
  138.9756  149.9372  139.3587 C   0  0  0  0  0  0  0  0  0  0  0  0
  138.5880  150.0764  141.6359 C   0  0  0  0  0  0  0  0  0  0  0  0
  137.2185  149.9023  141.8334 C   0  0  0  0  0  0  0  0  0  0  0  0
  136.5002  149.8297  140.5761 C   0  0  0  0  0  0  0  0  0  0  0  0
  139.1863  150.3537  143.1491 C   0  0  0  0  0  0  0  0  0  0  0  0
  138.2367  150.9497  144.0909 C   0  0  0  0  0  0  0  0  0  0  0  0
  137.4014  149.7126  139.0688 C   0  0  0  0  0  0  0  0  0  0  0  0
  137.1792  151.4191  144.0308 C   0  0  0  0  0  0  0  0  0  0  0  0
  136.2377  150.4178  142.8099 C   0  0  0  0  0  0  0  0  0  0  0  0
  136.3458  151.4141  145.2439 C   0  0  0  0  0  0  0  0  0  0  0  0
  1  2  2  0
  1  3  1  0
  3  4  1  0
  4  5  2  0
  3  6  1  0
  6  7  2  0
  2  8  1  0
  5  8  1  0
  7  9  1  0
  4 10  1  0
  9 10  1  0
  9 11  1  0
M  END
$$$$

     RDKit          3D

 11 12  0  0  0  0  0  0  0  0999 V2000
  139.2617  151.0924  142.4042 C   0  0  0  0  0  0  0  0  0  0  0  0
  138.8616  152.1308  142.9030 C   0  0  0  0  0  0  0  0  0  0  0  0
  137.7833  151.8925  143.8931 C   0  0  0  0  0  0  0  0  0  0  0  0
  137.3594  150.5408  144.0624 C   0  0  0  0  0  0  0  0  0  0  0  0
  136.3237  150.4660  145.1229 C   0  0  0  0  0  0  0  0  0  0  0  0
  139.2662  149.7548  142.8052 C   0  0  0  0  0  0  0  0  0  0  0  0
  137.9821  149.5363  143.6363 C   0  0  0  0  0  0  0  0  0  0  0  0
  135.7431  151.6428  145.3945 C   0  0  0  0  0  0  0  0  0  0  0  0
  137.1974  152.9082  144.6118 C   0  0  0  0  0  0  0  0  0  0  0  0
  136.1582  152.8117  145.4787 C   0  0  0  0  0  0  0  0  0  0  0  0
  140.0321  151.3638  140.9603 C   0  0  0  0  0  0  0  0  0  0  0  0
  1  2  1  0
  2  3  2  0
  3  4  1  0
  4  5  2  0
  1  6  1  0
  4  7  1  0
  6  7  2  0
  5  8  1  0
  3  9  1  0
  8 10  2  0
  9 10  2  0
  1 11  1  0
M  END
$$$$

     RDKit          3D

 11 11  0  0  0  0  0  0  0  0999 V2000
  140.3043  150.2153  139.4787 Cl  0  0  0  0  0  0  0  0  0  0  0  0
  138.6777  150.1901  140.5340 C   0  0  0  0  0  0  0  0  0  0  0  0
  137.6379  149.3864  140.0971 C   0  0  0  0  0  0  0  0  0  0  0  0
  138.7740  150.9330  141.6513 C   0  0  0  0  0  0  0  0  0  0  0  0
  137.6926  150.8816  142.5542 C   0  0  0  0  0  0  0  0  0  0  0  0
  137.6662  148.8824  138.7129 C   0  0  0  0  0  0  0  0  0  0  0  0
  137.8476  151.4110  143.9165 C   0  0  0  0  0  0  0  0  0  0  0  0
  136.7406  151.6634  144.7504 C   0  0  0  0  0  0  0  0  0  0  0  0
  136.4907  149.1212  140.5461 C   0  0  0  0  0  0  0  0  0  0  0  0
  136.4004  150.0991  141.8550 C   0  0  0  0  0  0  0  0  0  0  0  0
  135.4928  151.5123  144.3642 C   0  0  0  0  0  0  0  0  0  0  0  0
  1  2  1  0
  2  3  1  0
  2  4  2  0
  4  5  1  0
  3  6  1  0
  5  7  1  0
  7  8  2  3
  3  9  2  0
  5 10  2  0
  9 10  1  0
  8 11  1  0
M  END
$$$$

     RDKit          3D

 11 12  0  0  0  0  0  0  0  0999 V2000
  138.7088  151.1469  142.6270 C   0  0  0  0  0  0  0  0  0  0  0  0
  138.5262  151.9374  143.5115 C   0  0  0  0  0  0  0  0  0  0  0  0
  137.3824  151.6595  144.3968 C   0  0  0  0  0  0  0  0  0  0  0  0
  139.6611  150.9772  141.6901 C   0  0  0  0  0  0  0  0  0  0  0  0
  136.7221  150.4806  143.9608 C   0  0  0  0  0  0  0  0  0  0  0  0
  139.3791  150.7043  140.2857 C   0  0  0  0  0  0  0  0  0  0  0  0
  138.0794  150.1982  140.1257 C   0  0  0  0  0  0  0  0  0  0  0  0
  137.1149  150.0028  141.1724 C   0  0  0  0  0  0  0  0  0  0  0  0
  137.4807  150.3801  142.3862 C   0  0  0  0  0  0  0  0  0  0  0  0
  136.9172  152.2686  145.5813 C   0  0  0  0  0  0  0  0  0  0  0  0
  140.3078  150.6524  139.3076 C   0  0  0  0  0  0  0  0  0  0  0  0
  1  2  1  0
  2  3  2  0
  1  4  1  0
  3  5  1  0
  4  6  2  0
  6  7  1  0
  7  8  2  0
  1  9  2  0
  5  9  1  0
  8  9  1  0
  3 10  1  0
  6 11  1  0
M  END
$$$$

     RDKit          3D

 11 11  0  0  0  0  0  0  0  0999 V2000
  140.3043  150.2153  139.4787 Cl  0  0  0  0  0  0  0  0  0  0  0  0
  138.6777  150.1901  140.5340 C   0  0  0  0  0  0  0  0  0  0  0  0
  137.6379  149.3864  140.0971 C   0  0  0  0  0  0  0  0  0  0  0  0
  138.7740  150.9330  141.6513 C   0  0  0  0  0  0  0  0  0  0  0  0
  137.6926  150.8816  142.5542 C   0  0  0  0  0  0  0  0  0  0  0  0
  136.5950  150.1055  142.1638 C   0  0  0  0  0  0  0  0  0  0  0  0
  135.4011  150.2120  142.9996 C   0  0  0  0  0  0  0  0  0  0  0  0
  136.4392  149.4573  140.8793 C   0  0  0  0  0  0  0  0  0  0  0  0
  135.7371  151.0092  144.3166 C   0  0  0  0  0  0  0  0  0  0  0  0
  134.7992  151.1354  145.3830 C   0  0  0  0  0  0  0  0  0  0  0  0
  135.0546  152.1149  146.3592 C   0  0  0  0  0  0  0  0  0  0  0  0
  1  2  1  0
  2  3  1  0
  2  4  2  0
  4  5  1  0
  5  6  2  0
  6  7  1  0
  3  8  2  0
  6  8  1  0
  7  9  1  0
  9 10  2  3
 10 11  1  0
M  END
$$$$

     RDKit          3D

 11 12  0  0  0  0  0  0  0  0999 V2000
  138.7088  151.1469  142.6270 C   0  0  0  0  0  0  0  0  0  0  0  0
  138.5262  151.9374  143.5115 C   0  0  0  0  0  0  0  0  0  0  0  0
  137.4747  151.6747  144.4637 C   0  0  0  0  0  0  0  0  0  0  0  0
  138.0087  149.8672  142.4743 C   0  0  0  0  0  0  0  0  0  0  0  0
  136.7200  150.4829  144.2966 C   0  0  0  0  0  0  0  0  0  0  0  0
  137.0357  149.5593  143.3421 C   0  0  0  0  0  0  0  0  0  0  0  0
  137.0775  152.7469  145.6249 Cl  0  0  0  0  0  0  0  0  0  0  0  0
  139.7933  151.3507  141.5411 C   0  0  0  0  0  0  0  0  0  0  0  0
  139.6419  150.8167  140.3499 C   0  0  0  0  0  0  0  0  0  0  0  0
  138.6865  149.8695  140.0695 C   0  0  0  0  0  0  0  0  0  0  0  0
  137.8529  149.2867  141.0690 C   0  0  0  0  0  0  0  0  0  0  0  0
  1  2  2  0
  2  3  1  0
  1  4  1  0
  3  5  2  0
  4  6  2  0
  5  6  1  0
  3  7  1  0
  1  8  1  0
  8  9  2  0
  9 10  1  0
  4 11  1  0
 10 11  2  0
M  END
$$$$

     RDKit          3D

 11 11  0  0  0  0  0  0  0  0999 V2000
  138.9700  151.3142  142.5680 C   0  0  0  0  0  0  0  0  0  0  0  0
  138.6028  152.0888  143.2649 C   0  0  0  0  0  0  0  0  0  0  0  0
  137.6613  151.8314  144.0472 C   0  0  0  0  0  0  0  0  0  0  0  0
  136.5817  152.7482  144.5731 C   0  0  0  0  0  0  0  0  0  0  0  0
  135.5891  152.5118  145.5181 C   0  0  0  0  0  0  0  0  0  0  0  0
  135.6197  151.0419  145.8143 C   0  0  0  0  0  0  0  0  0  0  0  0
  139.9622  151.4785  141.3913 C   0  0  0  0  0  0  0  0  0  0  0  0
  137.2345  150.4487  144.6263 C   0  0  0  0  0  0  0  0  0  0  0  0
  138.2721  149.5562  144.1273 O   0  0  0  0  0  0  0  0  0  0  0  0
  139.8006  150.6090  140.2457 C   0  0  0  0  0  0  0  0  0  0  0  0
  136.3846  150.0304  145.4575 C   0  0  0  0  0  0  0  0  0  0  0  0
  1  2  2  3
  2  3  1  0
  3  4  1  0
  4  5  2  0
  5  6  1  0
  1  7  1  0
  3  8  2  0
  8  9  1  0
  7 10  1  0
  6 11  2  0
  8 11  1  0
M  END
$$$$

     RDKit          3D

 11 11  0  0  0  0  0  0  0  0999 V2000
  138.9700  151.3142  142.5680 C   0  0  0  0  0  0  0  0  0  0  0  0
  138.6028  152.0888  143.2649 C   0  0  0  0  0  0  0  0  0  0  0  0
  137.4885  151.7627  144.1910 C   0  0  0  0  0  0  0  0  0  0  0  0
  139.9946  151.3890  141.4262 C   0  0  0  0  0  0  0  0  0  0  0  0
  137.1413  150.3696  144.0327 C   0  0  0  0  0  0  0  0  0  0  0  0
  138.4285  149.9931  142.3915 C   0  0  0  0  0  0  0  0  0  0  0  0
  136.7928  152.5100  145.0952 C   0  0  0  0  0  0  0  0  0  0  0  0
  137.5962  149.5568  143.3132 N   0  0  0  0  0  0  0  0  0  0  0  0
  135.5552  152.1958  145.6442 C   0  0  0  0  0  0  0  0  0  0  0  0
  139.7425  150.8367  140.2819 C   0  0  0  0  0  0  0  0  0  0  0  0
  140.8398  150.7515  139.2428 C   0  0  0  0  0  0  0  0  0  0  0  0
  1  2  1  0
  2  3  2  0
  1  4  1  0
  3  5  1  0
  1  6  2  0
  3  7  1  0
  5  8  2  0
  6  8  1  0
  7  9  1  0
  4 10  2  3
 10 11  1  0
M  END
$$$$

     RDKit          3D

 11 11  0  0  0  0  0  0  0  0999 V2000
  139.2617  151.0924  142.4042 C   0  0  0  0  0  0  0  0  0  0  0  0
  138.8616  152.1308  142.9030 C   0  0  0  0  0  0  0  0  0  0  0  0
  137.7833  151.8925  143.8931 C   0  0  0  0  0  0  0  0  0  0  0  0
  137.3594  150.5408  144.0624 C   0  0  0  0  0  0  0  0  0  0  0  0
  136.3237  150.4660  145.1229 C   0  0  0  0  0  0  0  0  0  0  0  0
  139.2662  149.7548  142.8052 C   0  0  0  0  0  0  0  0  0  0  0  0
  138.1543  149.4944  143.5919 C   0  0  0  0  0  0  0  0  0  0  0  0
  140.3111  151.2931  141.2559 C   0  0  0  0  0  0  0  0  0  0  0  0
  135.4495  151.3574  145.3249 C   0  0  0  0  0  0  0  0  0  0  0  0
  134.8188  152.0661  144.4302 O   0  0  0  0  0  0  0  0  0  0  0  0
  140.0361  150.6455  140.1024 C   0  0  0  0  0  0  0  0  0  0  0  0
  1  2  1  0
  2  3  2  0
  3  4  1  0
  4  5  2  3
  1  6  1  0
  4  7  1  0
  6  7  2  0
  1  8  2  3
  5  9  1  0
  9 10  1  0
  8 11  1  0
M  END
$$$$

     RDKit          3D

 11 12  0  0  0  0  0  0  0  0999 V2000
  139.3443  149.9938  140.5872 C   0  0  0  0  0  0  0  0  0  0  0  0
  138.9756  149.9372  139.3587 C   0  0  0  0  0  0  0  0  0  0  0  0
  138.5880  150.0764  141.6359 C   0  0  0  0  0  0  0  0  0  0  0  0
  137.2185  149.9023  141.8334 C   0  0  0  0  0  0  0  0  0  0  0  0
  136.5002  149.8297  140.5761 C   0  0  0  0  0  0  0  0  0  0  0  0
  139.2084  150.3134  143.0871 C   0  0  0  0  0  0  0  0  0  0  0  0
  138.4198  151.1093  143.8825 C   0  0  0  0  0  0  0  0  0  0  0  0
  137.1064  151.1415  143.8454 C   0  0  0  0  0  0  0  0  0  0  0  0
  136.3586  150.3922  142.8468 C   0  0  0  0  0  0  0  0  0  0  0  0
  136.3431  151.7676  144.8259 O   0  0  0  0  0  0  0  0  0  0  0  0
  137.3316  149.6970  139.2757 C   0  0  0  0  0  0  0  0  0  0  0  0
  1  2  2  0
  1  3  1  0
  3  4  1  0
  4  5  2  0
  3  6  1  0
  6  7  2  0
  7  8  1  0
  4  9  1  0
  8  9  1  0
  8 10  1  0
  2 11  1  0
  5 11  1  0
M  END
$$$$

     RDKit          3D

 11 10  0  0  0  0  0  0  0  0999 V2000
  138.7088  151.1469  142.6270 C   0  0  0  0  0  0  0  0  0  0  0  0
  138.5262  151.9374  143.5115 C   0  0  0  0  0  0  0  0  0  0  0  0
  137.3922  151.8105  144.0744 C   0  0  0  0  0  0  0  0  0  0  0  0
  138.6989  150.6878  141.4235 C   0  0  0  0  0  0  0  0  0  0  0  0
  136.4557  150.8644  143.7045 C   0  0  0  0  0  0  0  0  0  0  0  0
  136.7425  152.6554  145.2883 C   0  0  0  0  0  0  0  0  0  0  0  0
  139.2512  150.0236  140.1454 C   0  0  0  0  0  0  0  0  0  0  0  0
  138.2793  149.5157  139.4520 C   0  0  0  0  0  0  0  0  0  0  0  0
  140.5055  150.4220  139.9459 C   0  0  0  0  0  0  0  0  0  0  0  0
  140.9970  149.8942  138.6474 C   0  0  0  0  0  0  0  0  0  0  0  0
  136.9892  149.3463  139.8850 C   0  0  0  0  0  0  0  0  0  0  0  0
  1  2  1  0
  2  3  2  3
  1  4  3  0
  3  5  1  0
  3  6  1  0
  4  7  1  0
  7  8  2  3
  7  9  1  0
  9 10  2  0
  8 11  1  0
M  END
$$$$

     RDKit          3D

 11 11  0  0  0  0  0  0  0  0999 V2000
  138.9700  151.3142  142.5680 C   0  0  0  0  0  0  0  0  0  0  0  0
  138.6028  152.0888  143.2649 C   0  0  0  0  0  0  0  0  0  0  0  0
  137.6613  151.8314  144.0472 C   0  0  0  0  0  0  0  0  0  0  0  0
  136.5817  152.7482  144.5731 C   0  0  0  0  0  0  0  0  0  0  0  0
  135.5891  152.5118  145.5181 C   0  0  0  0  0  0  0  0  0  0  0  0
  135.6197  151.0419  145.8143 C   0  0  0  0  0  0  0  0  0  0  0  0
  139.9622  151.4785  141.3913 C   0  0  0  0  0  0  0  0  0  0  0  0
  137.2345  150.4487  144.6263 C   0  0  0  0  0  0  0  0  0  0  0  0
  134.5681  150.7790  146.8612 C   0  0  0  0  0  0  0  0  0  0  0  0
  136.4235  150.0795  145.3972 C   0  0  0  0  0  0  0  0  0  0  0  0
  139.8199  150.5414  140.2687 C   0  0  0  0  0  0  0  0  0  0  0  0
  1  2  2  3
  2  3  1  0
  3  4  1  0
  4  5  2  0
  5  6  1  0
  1  7  1  0
  3  8  2  0
  6  9  1  0
  6 10  2  0
  8 10  1  0
  7 11  1  0
M  END
$$$$

     RDKit          3D

 11 12  0  0  0  0  0  0  0  0999 V2000
  138.9700  151.3142  142.5680 C   0  0  0  0  0  0  0  0  0  0  0  0
  138.6028  152.0888  143.2649 C   0  0  0  0  0  0  0  0  0  0  0  0
  139.7534  151.4391  141.3513 C   0  0  0  0  0  0  0  0  0  0  0  0
  137.5434  151.8486  144.3752 C   0  0  0  0  0  0  0  0  0  0  0  0
  137.4057  150.5855  144.6897 C   0  0  0  0  0  0  0  0  0  0  0  0
  139.5846  150.4504  140.3545 C   0  0  0  0  0  0  0  0  0  0  0  0
  138.6911  149.4437  140.7439 C   0  0  0  0  0  0  0  0  0  0  0  0
  137.7600  149.6564  141.7147 C   0  0  0  0  0  0  0  0  0  0  0  0
  140.4215  150.4230  139.2710 C   0  0  0  0  0  0  0  0  0  0  0  0
  138.1647  150.4624  142.7948 C   0  0  0  0  0  0  0  0  0  0  0  0
  137.5508  149.9043  143.7359 N   0  0  0  0  0  0  0  0  0  0  0  0
  1  2  1  0
  1  3  1  0
  2  4  1  0
  4  5  2  0
  3  6  2  0
  6  7  1  0
  7  8  2  0
  6  9  1  0
  1 10  2  0
  8 10  1  0
  5 11  1  0
 10 11  1  0
M  END
$$$$

     RDKit          3D

 11 12  0  0  0  0  0  0  0  0999 V2000
  140.3043  150.2153  139.4787 Cl  0  0  0  0  0  0  0  0  0  0  0  0
  138.6777  150.1901  140.5340 C   0  0  0  0  0  0  0  0  0  0  0  0
  137.6379  149.3864  140.0971 C   0  0  0  0  0  0  0  0  0  0  0  0
  138.7740  150.9330  141.6513 C   0  0  0  0  0  0  0  0  0  0  0  0
  138.1503  150.9121  142.4451 C   0  0  0  0  0  0  0  0  0  0  0  0
  136.8417  150.0645  142.3201 C   0  0  0  0  0  0  0  0  0  0  0  0
  135.8231  150.1830  143.3116 C   0  0  0  0  0  0  0  0  0  0  0  0
  135.8992  151.0191  144.3887 C   0  0  0  0  0  0  0  0  0  0  0  0
  137.1195  151.4344  144.9698 C   0  0  0  0  0  0  0  0  0  0  0  0
  136.5784  149.4749  141.0592 C   0  0  0  0  0  0  0  0  0  0  0  0
  138.1566  151.6515  143.8730 C   0  0  0  0  0  0  0  0  0  0  0  0
  1  2  1  0
  2  3  1  0
  2  4  2  0
  4  5  1  0
  5  6  2  0
  6  7  1  0
  7  8  1  0
  8  9  1  0
  3 10  2  0
  6 10  1  0
  5 11  1  0
  9 11  1  0
M  END
$$$$

     RDKit          3D

 11 11  0  0  0  0  0  0  0  0999 V2000
  139.2617  151.0924  142.4042 C   0  0  0  0  0  0  0  0  0  0  0  0
  138.8616  152.1308  142.9030 C   0  0  0  0  0  0  0  0  0  0  0  0
  137.7833  151.8925  143.8931 C   0  0  0  0  0  0  0  0  0  0  0  0
  137.3594  150.5408  144.0624 C   0  0  0  0  0  0  0  0  0  0  0  0
  136.3237  150.4660  145.1229 C   0  0  0  0  0  0  0  0  0  0  0  0
  139.2662  149.7548  142.8052 C   0  0  0  0  0  0  0  0  0  0  0  0
  139.9773  151.1303  141.1428 C   0  0  0  0  0  0  0  0  0  0  0  0
  138.1349  149.4647  143.7648 C   0  0  0  0  0  0  0  0  0  0  0  0
  139.8404  150.2868  140.0573 C   0  0  0  0  0  0  0  0  0  0  0  0
  135.4315  151.3292  145.3443 C   0  0  0  0  0  0  0  0  0  0  0  0
  134.7601  152.0076  144.4637 C   0  0  0  0  0  0  0  0  0  0  0  0
  1  2  1  0
  2  3  2  0
  3  4  1  0
  4  5  2  3
  1  6  1  0
  1  7  2  3
  4  8  1  0
  6  8  2  0
  7  9  1  0
  5 10  1  0
 10 11  2  0
M  END
$$$$

     RDKit          3D

 11 12  0  0  0  0  0  0  0  0999 V2000
  139.2617  151.0924  142.4042 C   0  0  0  0  0  0  0  0  0  0  0  0
  138.8616  152.1308  142.9030 C   0  0  0  0  0  0  0  0  0  0  0  0
  137.9129  151.7989  143.7815 C   0  0  0  0  0  0  0  0  0  0  0  0
  138.8296  150.4005  141.6037 C   0  0  0  0  0  0  0  0  0  0  0  0
  137.6678  149.9540  141.7617 C   0  0  0  0  0  0  0  0  0  0  0  0
  136.8343  150.9146  143.3909 C   0  0  0  0  0  0  0  0  0  0  0  0
  137.1435  149.1542  140.5066 C   0  0  0  0  0  0  0  0  0  0  0  0
  136.6940  150.2007  142.4828 C   0  0  0  0  0  0  0  0  0  0  0  0
  135.7283  150.9958  144.5513 C   0  0  0  0  0  0  0  0  0  0  0  0
  135.8445  151.9863  145.4629 C   0  0  0  0  0  0  0  0  0  0  0  0
  137.5025  152.6882  144.9997 C   0  0  0  0  0  0  0  0  0  0  0  0
  1  2  1  0
  2  3  2  0
  1  4  2  0
  4  5  1  0
  3  6  1  0
  5  7  1  0
  5  8  2  0
  6  8  1  0
  6  9  1  0
  9 10  2  0
  3 11  1  0
 10 11  1  0
M  END
$$$$

     RDKit          3D

 11 11  0  0  0  0  0  0  0  0999 V2000
  138.9700  151.3142  142.5680 C   0  0  0  0  0  0  0  0  0  0  0  0
  138.6028  152.0888  143.2649 C   0  0  0  0  0  0  0  0  0  0  0  0
  137.4885  151.7627  144.1910 C   0  0  0  0  0  0  0  0  0  0  0  0
  137.1685  150.4112  144.2718 C   0  0  0  0  0  0  0  0  0  0  0  0
  136.7824  152.6364  145.0888 C   0  0  0  0  0  0  0  0  0  0  0  0
  138.5870  149.8397  142.4014 C   0  0  0  0  0  0  0  0  0  0  0  0
  137.0923  153.8621  145.1626 C   0  0  0  0  0  0  0  0  0  0  0  0
  135.6389  152.2000  145.4751 C   0  0  0  0  0  0  0  0  0  0  0  0
  134.6874  153.0288  146.0279 C   0  0  0  0  0  0  0  0  0  0  0  0
  139.0878  148.9848  141.5148 C   0  0  0  0  0  0  0  0  0  0  0  0
  137.5800  149.4508  143.4045 N   0  0  0  0  0  0  0  0  0  0  0  0
  1  2  1  0
  2  3  2  0
  3  4  1  0
  3  5  1  0
  1  6  2  0
  5  7  1  0
  5  8  2  3
  8  9  1  0
  6 10  1  0
  4 11  2  0
  6 11  1  0
M  END
$$$$

     RDKit          3D

 11 11  0  0  0  0  0  0  0  0999 V2000
  140.3043  150.2153  139.4787 Cl  0  0  0  0  0  0  0  0  0  0  0  0
  138.6777  150.1901  140.5340 C   0  0  0  0  0  0  0  0  0  0  0  0
  137.6379  149.3864  140.0971 C   0  0  0  0  0  0  0  0  0  0  0  0
  139.2420  150.7164  141.5780 C   0  0  0  0  0  0  0  0  0  0  0  0
  138.3728  151.0639  142.3847 C   0  0  0  0  0  0  0  0  0  0  0  0
  138.6199  151.8236  143.7078 C   0  0  0  0  0  0  0  0  0  0  0  0
  137.1682  150.7329  142.8127 C   0  0  0  0  0  0  0  0  0  0  0  0
  136.2848  150.8653  143.5649 C   0  0  0  0  0  0  0  0  0  0  0  0
  136.6310  151.5839  144.5527 C   0  0  0  0  0  0  0  0  0  0  0  0
  137.8239  152.0369  144.6996 C   0  0  0  0  0  0  0  0  0  0  0  0
  135.6667  151.9388  145.7470 C   0  0  0  0  0  0  0  0  0  0  0  0
  1  2  1  0
  2  3  1  0
  2  4  2  3
  4  5  1  0
  5  6  1  0
  5  7  2  0
  7  8  1  0
  8  9  2  0
  6 10  2  0
  9 10  1  0
  9 11  1  0
M  END
$$$$

     RDKit          3D

 11 12  0  0  0  0  0  0  0  0999 V2000
  138.7088  151.1469  142.6270 C   0  0  0  0  0  0  0  0  0  0  0  0
  138.5262  151.9374  143.5115 C   0  0  0  0  0  0  0  0  0  0  0  0
  137.3824  151.6595  144.3968 C   0  0  0  0  0  0  0  0  0  0  0  0
  139.6611  150.9772  141.6901 C   0  0  0  0  0  0  0  0  0  0  0  0
  136.7221  150.4806  143.9608 C   0  0  0  0  0  0  0  0  0  0  0  0
  139.3791  150.7043  140.2857 C   0  0  0  0  0  0  0  0  0  0  0  0
  138.0794  150.1982  140.1257 C   0  0  0  0  0  0  0  0  0  0  0  0
  137.7206  149.7514  138.7664 C   0  0  0  0  0  0  0  0  0  0  0  0
  137.5193  150.1990  142.5431 C   0  0  0  0  0  0  0  0  0  0  0  0
  137.1581  149.6210  141.3101 C   0  0  0  0  0  0  0  0  0  0  0  0
  136.9304  152.4538  145.5636 C   0  0  0  0  0  0  0  0  0  0  0  0
  1  2  1  0
  2  3  2  0
  1  4  1  0
  3  5  1  0
  4  6  2  0
  6  7  1  0
  7  8  1  0
  1  9  2  0
  5  9  1  0
  7 10  2  0
  9 10  1  0
  3 11  1  0
M  END
$$$$

     RDKit          3D

 11 12  0  0  0  0  0  0  0  0999 V2000
  139.3443  149.9938  140.5872 C   0  0  0  0  0  0  0  0  0  0  0  0
  138.9756  149.9372  139.3587 C   0  0  0  0  0  0  0  0  0  0  0  0
  138.5880  150.0764  141.6359 C   0  0  0  0  0  0  0  0  0  0  0  0
  137.2185  149.9023  141.8334 C   0  0  0  0  0  0  0  0  0  0  0  0
  136.5002  149.8297  140.5761 C   0  0  0  0  0  0  0  0  0  0  0  0
  139.2084  150.3134  143.0871 C   0  0  0  0  0  0  0  0  0  0  0  0
  138.4198  151.1093  143.8825 C   0  0  0  0  0  0  0  0  0  0  0  0
  136.7749  150.4863  143.0380 C   0  0  0  0  0  0  0  0  0  0  0  0
  137.2486  150.9021  144.0328 C   0  0  0  0  0  0  0  0  0  0  0  0
  137.4821  149.7010  139.1281 C   0  0  0  0  0  0  0  0  0  0  0  0
  136.4024  151.2137  145.3376 C   0  0  0  0  0  0  0  0  0  0  0  0
  1  2  2  0
  1  3  1  0
  3  4  1  0
  4  5  2  0
  3  6  1  0
  6  7  2  0
  4  8  1  0
  7  9  1  0
  8  9  2  0
  2 10  1  0
  5 10  1  0
  9 11  1  0
M  END
$$$$

     RDKit          3D

 11 12  0  0  0  0  0  0  0  0999 V2000
  139.2617  151.0924  142.4042 C   0  0  0  0  0  0  0  0  0  0  0  0
  138.8616  152.1308  142.9030 C   0  0  0  0  0  0  0  0  0  0  0  0
  137.7833  151.8925  143.8931 C   0  0  0  0  0  0  0  0  0  0  0  0
  137.3594  150.5408  144.0624 C   0  0  0  0  0  0  0  0  0  0  0  0
  136.3237  150.4660  145.1229 C   0  0  0  0  0  0  0  0  0  0  0  0
  139.2662  149.7548  142.8052 C   0  0  0  0  0  0  0  0  0  0  0  0
  137.9821  149.5363  143.6363 C   0  0  0  0  0  0  0  0  0  0  0  0
  135.7431  151.6428  145.3945 C   0  0  0  0  0  0  0  0  0  0  0  0
  140.2499  151.3279  141.2676 C   0  0  0  0  0  0  0  0  0  0  0  0
  140.0304  150.6490  140.1334 C   0  0  0  0  0  0  0  0  0  0  0  0
  136.8905  152.8230  144.6525 C   0  0  0  0  0  0  0  0  0  0  0  0
  1  2  1  0
  2  3  2  0
  3  4  1  0
  4  5  2  0
  1  6  1  0
  4  7  1  0
  6  7  2  0
  5  8  1  0
  1  9  2  3
  9 10  1  0
  3 11  1  0
  8 11  2  0
M  END
$$$$

     RDKit          3D

 11 12  0  0  0  0  0  0  0  0999 V2000
  139.5351  150.8912  142.2316 C   0  0  0  0  0  0  0  0  0  0  0  0
  138.9995  151.9980  142.6388 C   0  0  0  0  0  0  0  0  0  0  0  0
  138.9552  149.6528  142.4249 C   0  0  0  0  0  0  0  0  0  0  0  0
  137.7531  151.8934  143.4318 C   0  0  0  0  0  0  0  0  0  0  0  0
  137.3026  153.0162  144.1111 C   0  0  0  0  0  0  0  0  0  0  0  0
  136.3824  152.7492  145.0837 C   0  0  0  0  0  0  0  0  0  0  0  0
  136.0524  151.4309  145.3461 C   0  0  0  0  0  0  0  0  0  0  0  0
  137.3708  150.5234  143.7847 C   0  0  0  0  0  0  0  0  0  0  0  0
  135.2081  151.1450  146.4859 C   0  0  0  0  0  0  0  0  0  0  0  0
  136.5495  150.3986  144.6242 C   0  0  0  0  0  0  0  0  0  0  0  0
  137.8858  149.4495  143.2116 N   0  0  0  0  0  0  0  0  0  0  0  0
  1  2  2  0
  1  3  1  0
  2  4  1  0
  4  5  1  0
  5  6  2  0
  6  7  1  0
  4  8  2  0
  7  9  1  0
  7 10  2  0
  8 10  1  0
  3 11  2  0
  8 11  1  0
M  END
$$$$

     RDKit          3D

 11 12  0  0  0  0  0  0  0  0999 V2000
  138.7088  151.1469  142.6270 C   0  0  0  0  0  0  0  0  0  0  0  0
  138.5262  151.9374  143.5115 C   0  0  0  0  0  0  0  0  0  0  0  0
  137.3922  151.8105  144.0744 C   0  0  0  0  0  0  0  0  0  0  0  0
  136.5951  150.6201  143.9738 C   0  0  0  0  0  0  0  0  0  0  0  0
  137.9799  149.9622  142.2560 C   0  0  0  0  0  0  0  0  0  0  0  0
  136.5087  152.7504  145.0878 C   0  0  0  0  0  0  0  0  0  0  0  0
  136.8352  153.9867  145.0815 C   0  0  0  0  0  0  0  0  0  0  0  0
  135.4954  150.3735  144.8101 C   0  0  0  0  0  0  0  0  0  0  0  0
  136.9058  149.6498  142.9869 C   0  0  0  0  0  0  0  0  0  0  0  0
  135.2014  151.6947  145.5146 C   0  0  0  0  0  0  0  0  0  0  0  0
  134.6438  152.3056  146.4453 C   0  0  0  0  0  0  0  0  0  0  0  0
  1  2  1  0
  2  3  2  0
  3  4  1  0
  1  5  2  0
  3  6  1  0
  6  7  1  0
  4  8  1  0
  4  9  2  0
  5  9  1  0
  6 10  1  0
  8 10  1  0
 10 11  1  0
M  END
$$$$

     RDKit          3D

 11 11  0  0  0  0  0  0  0  0999 V2000
  138.9700  151.3142  142.5680 C   0  0  0  0  0  0  0  0  0  0  0  0
  138.6028  152.0888  143.2649 C   0  0  0  0  0  0  0  0  0  0  0  0
  137.6613  151.8314  144.0472 C   0  0  0  0  0  0  0  0  0  0  0  0
  136.5817  152.7482  144.5731 C   0  0  0  0  0  0  0  0  0  0  0  0
  135.5891  152.5118  145.5181 C   0  0  0  0  0  0  0  0  0  0  0  0
  135.6197  151.0419  145.8143 C   0  0  0  0  0  0  0  0  0  0  0  0
  139.9622  151.4785  141.3913 C   0  0  0  0  0  0  0  0  0  0  0  0
  137.2345  150.4487  144.6263 C   0  0  0  0  0  0  0  0  0  0  0  0
  139.7141  150.7089  140.2498 C   0  0  0  0  0  0  0  0  0  0  0  0
  136.4193  150.0936  145.4437 C   0  0  0  0  0  0  0  0  0  0  0  0
  140.6988  150.5358  139.2467 C   0  0  0  0  0  0  0  0  0  0  0  0
  1  2  2  3
  2  3  1  0
  3  4  1  0
  4  5  2  0
  5  6  1  0
  1  7  1  0
  3  8  2  0
  7  9  2  3
  6 10  2  0
  8 10  1  0
  9 11  1  0
M  END
$$$$

     RDKit          3D

 11 12  0  0  0  0  0  0  0  0999 V2000
  139.2617  151.0924  142.4042 C   0  0  0  0  0  0  0  0  0  0  0  0
  138.8616  152.1308  142.9030 C   0  0  0  0  0  0  0  0  0  0  0  0
  137.7833  151.8925  143.8931 C   0  0  0  0  0  0  0  0  0  0  0  0
  137.3594  150.5408  144.0624 C   0  0  0  0  0  0  0  0  0  0  0  0
  136.3237  150.4660  145.1229 C   0  0  0  0  0  0  0  0  0  0  0  0
  139.2662  149.7548  142.8052 C   0  0  0  0  0  0  0  0  0  0  0  0
  137.9821  149.5363  143.6363 C   0  0  0  0  0  0  0  0  0  0  0  0
  135.7431  151.6428  145.3945 C   0  0  0  0  0  0  0  0  0  0  0  0
  136.9313  152.8329  144.5592 C   0  0  0  0  0  0  0  0  0  0  0  0
  140.3143  151.3166  141.2859 O   0  0  0  0  0  0  0  0  0  0  0  0
  136.0399  152.7938  145.2838 C   0  0  0  0  0  0  0  0  0  0  0  0
  1  2  1  0
  2  3  2  0
  3  4  1  0
  4  5  2  0
  1  6  1  0
  4  7  1  0
  6  7  2  0
  5  8  1  0
  3  9  1  0
  1 10  1  0
  8 11  2  0
  9 11  2  0
M  END
$$$$

     RDKit          3D

 11 11  0  0  0  0  0  0  0  0999 V2000
  138.9700  151.3142  142.5680 C   0  0  0  0  0  0  0  0  0  0  0  0
  138.6028  152.0888  143.2649 C   0  0  0  0  0  0  0  0  0  0  0  0
  139.7534  151.4391  141.3513 C   0  0  0  0  0  0  0  0  0  0  0  0
  137.7662  151.7110  144.3568 C   0  0  0  0  0  0  0  0  0  0  0  0
  139.6325  150.5472  140.2940 C   0  0  0  0  0  0  0  0  0  0  0  0
  138.3337  149.8486  142.7723 C   0  0  0  0  0  0  0  0  0  0  0  0
  137.2709  152.7096  145.2850 C   0  0  0  0  0  0  0  0  0  0  0  0
  140.4117  150.7719  139.0297 C   0  0  0  0  0  0  0  0  0  0  0  0
  137.2529  150.5809  144.5921 C   0  0  0  0  0  0  0  0  0  0  0  0
  137.6793  149.6510  143.8914 C   0  0  0  0  0  0  0  0  0  0  0  0
  136.0311  153.0670  145.7739 C   0  0  0  0  0  0  0  0  0  0  0  0
  1  2  1  0
  1  3  1  0
  2  4  2  0
  3  5  2  3
  1  6  2  0
  4  7  1  0
  5  8  1  0
  4  9  1  0
  6 10  1  0
  9 10  2  0
  7 11  2  0
M  END
$$$$

     RDKit          3D

 11 11  0  0  0  0  0  0  0  0999 V2000
  140.3043  150.2153  139.4787 Cl  0  0  0  0  0  0  0  0  0  0  0  0
  138.6777  150.1901  140.5340 C   0  0  0  0  0  0  0  0  0  0  0  0
  137.6379  149.3864  140.0971 C   0  0  0  0  0  0  0  0  0  0  0  0
  138.7740  150.9330  141.6513 C   0  0  0  0  0  0  0  0  0  0  0  0
  137.6926  150.8816  142.5542 C   0  0  0  0  0  0  0  0  0  0  0  0
  137.8475  151.5161  143.9010 C   0  0  0  0  0  0  0  0  0  0  0  0
  136.6428  150.1161  142.0733 C   0  0  0  0  0  0  0  0  0  0  0  0
  138.8541  152.0576  144.3014 O   0  0  0  0  0  0  0  0  0  0  0  0
  137.6135  148.7813  138.8994 C   0  0  0  0  0  0  0  0  0  0  0  0
  136.4303  149.5803  140.9868 C   0  0  0  0  0  0  0  0  0  0  0  0
  136.7432  151.3601  144.6739 C   0  0  0  0  0  0  0  0  0  0  0  0
  1  2  1  0
  2  3  1  0
  2  4  2  0
  4  5  1  0
  5  6  1  0
  5  7  2  0
  6  8  2  0
  3  9  1  0
  3 10  2  0
  7 10  1  0
  6 11  1  0
M  END
$$$$

     RDKit          3D

 11 11  0  0  0  0  0  0  0  0999 V2000
  138.7241  151.5757  143.3192 C   0  0  0  0  0  0  0  0  0  0  0  0
  137.9190  152.3259  143.7537 C   0  0  0  0  0  0  0  0  0  0  0  0
  136.7519  151.8077  144.4387 C   0  0  0  0  0  0  0  0  0  0  0  0
  136.7823  150.4615  144.6818 C   0  0  0  0  0  0  0  0  0  0  0  0
  138.6205  150.0970  143.3707 C   0  0  0  0  0  0  0  0  0  0  0  0
  139.5749  149.2565  142.7744 C   0  0  0  0  0  0  0  0  0  0  0  0
  135.7847  149.9445  145.6716 C   0  0  0  0  0  0  0  0  0  0  0  0
  136.0059  152.8716  145.1013 C   0  0  0  0  0  0  0  0  0  0  0  0
  137.6899  149.6971  144.1009 N   0  0  0  0  0  0  0  0  0  0  0  0
  136.3550  154.2074  145.1402 C   0  0  0  0  0  0  0  0  0  0  0  0
  135.0546  152.3484  145.5862 O   0  0  0  0  0  0  0  0  0  0  0  0
  1  2  1  0
  2  3  2  0
  3  4  1  0
  1  5  2  0
  5  6  1  0
  4  7  1  0
  3  8  1  0
  4  9  2  0
  5  9  1  0
  8 10  1  0
  8 11  2  0
M  END
$$$$

     RDKit          3D

 11 11  0  0  0  0  0  0  0  0999 V2000
  139.2617  151.0924  142.4042 C   0  0  0  0  0  0  0  0  0  0  0  0
  138.8616  152.1308  142.9030 C   0  0  0  0  0  0  0  0  0  0  0  0
  137.7833  151.8925  143.8931 C   0  0  0  0  0  0  0  0  0  0  0  0
  137.3594  150.5408  144.0624 C   0  0  0  0  0  0  0  0  0  0  0  0
  136.3237  150.4660  145.1229 C   0  0  0  0  0  0  0  0  0  0  0  0
  139.2662  149.7548  142.8052 C   0  0  0  0  0  0  0  0  0  0  0  0
  137.9821  149.5363  143.6363 C   0  0  0  0  0  0  0  0  0  0  0  0
  140.3469  151.2519  141.2880 C   0  0  0  0  0  0  0  0  0  0  0  0
  135.4236  151.3361  145.3604 C   0  0  0  0  0  0  0  0  0  0  0  0
  134.8830  152.1474  144.4940 C   0  0  0  0  0  0  0  0  0  0  0  0
  139.9583  150.5513  140.0075 C   0  0  0  0  0  0  0  0  0  0  0  0
  1  2  1  0
  2  3  2  0
  3  4  1  0
  4  5  2  3
  1  6  1  0
  4  7  1  0
  6  7  2  0
  1  8  1  0
  5  9  1  0
  9 10  2  0
  8 11  1  0
M  END
$$$$

     RDKit          3D

 11 11  0  0  0  0  0  0  0  0999 V2000
  140.3043  150.2153  139.4787 Cl  0  0  0  0  0  0  0  0  0  0  0  0
  138.6777  150.1901  140.5340 C   0  0  0  0  0  0  0  0  0  0  0  0
  137.6379  149.3864  140.0971 C   0  0  0  0  0  0  0  0  0  0  0  0
  139.2420  150.7164  141.5780 C   0  0  0  0  0  0  0  0  0  0  0  0
  138.3728  151.0639  142.3847 C   0  0  0  0  0  0  0  0  0  0  0  0
  138.6199  151.8236  143.7078 C   0  0  0  0  0  0  0  0  0  0  0  0
  137.1682  150.7329  142.8127 C   0  0  0  0  0  0  0  0  0  0  0  0
  136.2848  150.8653  143.5649 C   0  0  0  0  0  0  0  0  0  0  0  0
  136.6310  151.5839  144.5527 C   0  0  0  0  0  0  0  0  0  0  0  0
  137.8239  152.0369  144.6996 C   0  0  0  0  0  0  0  0  0  0  0  0
  135.4194  151.9600  145.8655 Cl  0  0  0  0  0  0  0  0  0  0  0  0
  1  2  1  0
  2  3  1  0
  2  4  2  3
  4  5  1  0
  5  6  1  0
  5  7  2  0
  7  8  1  0
  8  9  2  0
  6 10  2  0
  9 10  1  0
  9 11  1  0
M  END
$$$$

     RDKit          3D

 11 11  0  0  0  0  0  0  0  0999 V2000
  138.9700  151.3142  142.5680 C   0  0  0  0  0  0  0  0  0  0  0  0
  138.6028  152.0888  143.2649 C   0  0  0  0  0  0  0  0  0  0  0  0
  137.4885  151.7627  144.1910 C   0  0  0  0  0  0  0  0  0  0  0  0
  137.1685  150.4112  144.2718 C   0  0  0  0  0  0  0  0  0  0  0  0
  136.7824  152.6364  145.0888 C   0  0  0  0  0  0  0  0  0  0  0  0
  138.5870  149.8397  142.4014 C   0  0  0  0  0  0  0  0  0  0  0  0
  139.0806  148.9858  141.5391 C   0  0  0  0  0  0  0  0  0  0  0  0
  139.3317  149.6321  140.2633 C   0  0  0  0  0  0  0  0  0  0  0  0
  137.6586  149.4465  143.3919 N   0  0  0  0  0  0  0  0  0  0  0  0
  139.7513  149.1893  139.2094 C   0  0  0  0  0  0  0  0  0  0  0  0
  135.4959  152.3984  145.5841 C   0  0  0  0  0  0  0  0  0  0  0  0
  1  2  1  0
  2  3  2  0
  3  4  1  0
  3  5  1  0
  1  6  2  0
  6  7  1  0
  7  8  1  0
  4  9  2  0
  6  9  1  0
  8 10  2  0
  5 11  1  0
M  END
$$$$

     RDKit          3D

 12 13  0  0  0  0  0  0  0  0999 V2000
  139.2617  151.0924  142.4042 C   0  0  0  0  0  0  0  0  0  0  0  0
  138.8616  152.1308  142.9030 C   0  0  0  0  0  0  0  0  0  0  0  0
  137.7833  151.8925  143.8931 C   0  0  0  0  0  0  0  0  0  0  0  0
  137.3594  150.5408  144.0624 C   0  0  0  0  0  0  0  0  0  0  0  0
  136.3237  150.4660  145.1229 C   0  0  0  0  0  0  0  0  0  0  0  0
  139.2662  149.7548  142.8052 C   0  0  0  0  0  0  0  0  0  0  0  0
  137.9821  149.5363  143.6363 C   0  0  0  0  0  0  0  0  0  0  0  0
  140.3469  151.2519  141.2880 C   0  0  0  0  0  0  0  0  0  0  0  0
  139.9596  150.5990  140.0061 C   0  0  0  0  0  0  0  0  0  0  0  0
  135.7286  151.5960  145.4288 C   0  0  0  0  0  0  0  0  0  0  0  0
  135.8605  152.7814  144.7814 C   0  0  0  0  0  0  0  0  0  0  0  0
  136.8769  152.9687  144.1771 C   0  0  0  0  0  0  0  0  0  0  0  0
  1  2  1  0
  2  3  2  0
  3  4  1  0
  4  5  2  0
  1  6  1  0
  4  7  1  0
  6  7  2  0
  1  8  1  0
  8  9  1  0
  5 10  1  0
 10 11  2  0
  3 12  1  0
 11 12  1  0
M  END
$$$$

     RDKit          3D

 12 13  0  0  0  0  0  0  0  0999 V2000
  138.9700  151.3142  142.5680 C   0  0  0  0  0  0  0  0  0  0  0  0
  138.6028  152.0888  143.2649 C   0  0  0  0  0  0  0  0  0  0  0  0
  137.6281  151.7065  144.0688 C   0  0  0  0  0  0  0  0  0  0  0  0
  140.0307  151.3229  141.4173 C   0  0  0  0  0  0  0  0  0  0  0  0
  138.3103  150.1088  142.4683 C   0  0  0  0  0  0  0  0  0  0  0  0
  137.1492  150.7560  144.0988 C   0  0  0  0  0  0  0  0  0  0  0  0
  137.3028  153.0259  145.0184 C   0  0  0  0  0  0  0  0  0  0  0  0
  137.4615  149.6678  143.3280 C   0  0  0  0  0  0  0  0  0  0  0  0
  139.8766  150.6085  140.2323 C   0  0  0  0  0  0  0  0  0  0  0  0
  138.9692  149.6708  140.0135 C   0  0  0  0  0  0  0  0  0  0  0  0
  138.6108  149.2146  138.7586 C   0  0  0  0  0  0  0  0  0  0  0  0
  137.9692  149.2732  141.0226 N   0  0  0  0  0  0  0  0  0  0  0  0
  1  2  1  0
  2  3  2  0
  1  4  1  0
  1  5  2  0
  3  6  1  0
  3  7  1  0
  5  8  1  0
  6  8  2  0
  4  9  2  0
  9 10  1  0
 10 11  1  0
  5 12  1  0
 10 12  2  0
M  END
$$$$

     RDKit          3D

 12 13  0  0  0  0  0  0  0  0999 V2000
  140.3043  150.2153  139.4787 Cl  0  0  0  0  0  0  0  0  0  0  0  0
  138.6777  150.1901  140.5340 C   0  0  0  0  0  0  0  0  0  0  0  0
  137.6379  149.3864  140.0971 C   0  0  0  0  0  0  0  0  0  0  0  0
  138.7740  150.9330  141.6513 C   0  0  0  0  0  0  0  0  0  0  0  0
  137.6926  150.8816  142.5542 C   0  0  0  0  0  0  0  0  0  0  0  0
  137.8475  151.5161  143.9010 C   0  0  0  0  0  0  0  0  0  0  0  0
  136.6428  150.1161  142.0733 C   0  0  0  0  0  0  0  0  0  0  0  0
  137.6262  148.7824  138.9011 C   0  0  0  0  0  0  0  0  0  0  0  0
  135.4407  150.3653  143.0972 C   0  0  0  0  0  0  0  0  0  0  0  0
  136.7289  151.4926  144.7009 C   0  0  0  0  0  0  0  0  0  0  0  0
  135.5590  150.9933  144.2889 C   0  0  0  0  0  0  0  0  0  0  0  0
  136.4780  149.6177  140.8794 C   0  0  0  0  0  0  0  0  0  0  0  0
  1  2  1  0
  2  3  1  0
  2  4  2  0
  4  5  1  0
  5  6  1  0
  5  7  2  0
  3  8  1  0
  7  9  1  0
  6 10  2  0
  9 11  2  0
 10 11  1  0
  3 12  2  0
  7 12  1  0
M  END
$$$$

     RDKit          3D

 12 13  0  0  0  0  0  0  0  0999 V2000
  138.9700  151.3142  142.5680 C   0  0  0  0  0  0  0  0  0  0  0  0
  138.6028  152.0888  143.2649 C   0  0  0  0  0  0  0  0  0  0  0  0
  137.6281  151.7065  144.0688 C   0  0  0  0  0  0  0  0  0  0  0  0
  140.0307  151.3229  141.4173 C   0  0  0  0  0  0  0  0  0  0  0  0
  138.3116  149.9684  142.4859 C   0  0  0  0  0  0  0  0  0  0  0  0
  137.3614  149.9104  143.5667 C   0  0  0  0  0  0  0  0  0  0  0  0
  137.2551  152.9685  145.1329 C   0  0  0  0  0  0  0  0  0  0  0  0
  136.0113  152.8075  145.7611 C   0  0  0  0  0  0  0  0  0  0  0  0
  137.1416  150.8166  144.4310 C   0  0  0  0  0  0  0  0  0  0  0  0
  139.7671  150.8065  140.2340 C   0  0  0  0  0  0  0  0  0  0  0  0
  135.2584  151.7842  145.7002 C   0  0  0  0  0  0  0  0  0  0  0  0
  135.9039  150.5799  145.3773 C   0  0  0  0  0  0  0  0  0  0  0  0
  1  2  1  0
  2  3  2  0
  1  4  1  0
  1  5  2  0
  5  6  1  0
  3  7  1  0
  7  8  2  0
  3  9  1  0
  6  9  2  0
  4 10  2  0
  8 11  1  0
  9 12  1  0
 11 12  2  0
M  END
$$$$

     RDKit          3D

 12 13  0  0  0  0  0  0  0  0999 V2000
  138.9700  151.3142  142.5680 C   0  0  0  0  0  0  0  0  0  0  0  0
  138.6028  152.0888  143.2649 C   0  0  0  0  0  0  0  0  0  0  0  0
  137.6281  151.7065  144.0688 C   0  0  0  0  0  0  0  0  0  0  0  0
  140.0307  151.3229  141.4173 C   0  0  0  0  0  0  0  0  0  0  0  0
  138.3103  150.1088  142.4683 C   0  0  0  0  0  0  0  0  0  0  0  0
  137.1492  150.7560  144.0988 C   0  0  0  0  0  0  0  0  0  0  0  0
  137.3028  153.0259  145.0184 C   0  0  0  0  0  0  0  0  0  0  0  0
  137.4615  149.6678  143.3280 C   0  0  0  0  0  0  0  0  0  0  0  0
  139.8766  150.6085  140.2323 C   0  0  0  0  0  0  0  0  0  0  0  0
  138.9692  149.6708  140.0135 C   0  0  0  0  0  0  0  0  0  0  0  0
  138.3771  149.2547  141.1698 N   0  0  0  0  0  0  0  0  0  0  0  0
  138.8098  149.0414  138.8134 O   0  0  0  0  0  0  0  0  0  0  0  0
  1  2  1  0
  2  3  2  0
  1  4  1  0
  1  5  2  0
  3  6  1  0
  3  7  1  0
  5  8  1  0
  6  8  2  0
  4  9  2  0
  9 10  1  0
  5 11  1  0
 10 11  1  0
 10 12  2  0
M  END
$$$$

     RDKit          3D

 12 13  0  0  0  0  0  0  0  0999 V2000
  139.3443  149.9938  140.5872 C   0  0  0  0  0  0  0  0  0  0  0  0
  138.9756  149.9372  139.3587 C   0  0  0  0  0  0  0  0  0  0  0  0
  138.5880  150.0764  141.6359 C   0  0  0  0  0  0  0  0  0  0  0  0
  137.2185  149.9023  141.8334 C   0  0  0  0  0  0  0  0  0  0  0  0
  136.5002  149.8297  140.5761 C   0  0  0  0  0  0  0  0  0  0  0  0
  139.1863  150.3537  143.1491 C   0  0  0  0  0  0  0  0  0  0  0  0
  138.2367  150.9497  144.0909 C   0  0  0  0  0  0  0  0  0  0  0  0
  136.7172  150.4145  143.0633 C   0  0  0  0  0  0  0  0  0  0  0  0
  137.0825  150.7524  144.0792 C   0  0  0  0  0  0  0  0  0  0  0  0
  139.8312  149.9706  138.2213 C   0  0  0  0  0  0  0  0  0  0  0  0
  136.2850  151.4124  145.2791 C   0  0  0  0  0  0  0  0  0  0  0  0
  137.2207  149.7312  139.3491 C   0  0  0  0  0  0  0  0  0  0  0  0
  1  2  2  0
  1  3  1  0
  3  4  1  0
  4  5  2  0
  3  6  1  0
  6  7  2  0
  4  8  1  0
  7  9  1  0
  8  9  2  0
  2 10  1  0
  9 11  1  0
  2 12  1  0
  5 12  1  0
M  END
$$$$

     RDKit          3D

 12 13  0  0  0  0  0  0  0  0999 V2000
  139.2617  151.0924  142.4042 C   0  0  0  0  0  0  0  0  0  0  0  0
  138.8616  152.1308  142.9030 C   0  0  0  0  0  0  0  0  0  0  0  0
  137.7833  151.8925  143.8931 C   0  0  0  0  0  0  0  0  0  0  0  0
  137.3594  150.5408  144.0624 C   0  0  0  0  0  0  0  0  0  0  0  0
  136.3237  150.4660  145.1229 C   0  0  0  0  0  0  0  0  0  0  0  0
  139.2662  149.7548  142.8052 C   0  0  0  0  0  0  0  0  0  0  0  0
  137.9821  149.5363  143.6363 C   0  0  0  0  0  0  0  0  0  0  0  0
  140.3469  151.2519  141.2880 C   0  0  0  0  0  0  0  0  0  0  0  0
  139.9596  150.5990  140.0061 C   0  0  0  0  0  0  0  0  0  0  0  0
  135.7286  151.5960  145.4288 C   0  0  0  0  0  0  0  0  0  0  0  0
  136.9167  152.8149  144.6539 C   0  0  0  0  0  0  0  0  0  0  0  0
  136.0323  152.7459  145.3436 C   0  0  0  0  0  0  0  0  0  0  0  0
  1  2  1  0
  2  3  2  0
  3  4  1  0
  4  5  2  0
  1  6  1  0
  4  7  1  0
  6  7  2  0
  1  8  1  0
  8  9  1  0
  5 10  1  0
  3 11  1  0
 10 12  2  0
 11 12  2  0
M  END
$$$$

     RDKit          3D

 12 13  0  0  0  0  0  0  0  0999 V2000
  139.3443  149.9938  140.5872 C   0  0  0  0  0  0  0  0  0  0  0  0
  138.9756  149.9372  139.3587 C   0  0  0  0  0  0  0  0  0  0  0  0
  138.5880  150.0764  141.6359 C   0  0  0  0  0  0  0  0  0  0  0  0
  137.2185  149.9023  141.8334 C   0  0  0  0  0  0  0  0  0  0  0  0
  136.5002  149.8297  140.5761 C   0  0  0  0  0  0  0  0  0  0  0  0
  139.1863  150.3537  143.1491 C   0  0  0  0  0  0  0  0  0  0  0  0
  138.2367  150.9497  144.0909 C   0  0  0  0  0  0  0  0  0  0  0  0
  137.4014  149.7126  139.0688 C   0  0  0  0  0  0  0  0  0  0  0  0
  136.3713  150.1576  142.7324 C   0  0  0  0  0  0  0  0  0  0  0  0
  136.9101  150.7020  144.0168 C   0  0  0  0  0  0  0  0  0  0  0  0
  136.1167  151.1552  145.1256 C   0  0  0  0  0  0  0  0  0  0  0  0
  136.3262  151.1326  146.3557 C   0  0  0  0  0  0  0  0  0  0  0  0
  1  2  2  0
  1  3  1  0
  3  4  1  0
  4  5  2  0
  3  6  1  0
  6  7  2  0
  2  8  1  0
  5  8  1  0
  4  9  1  0
  7 10  1  0
  9 10  2  0
 10 11  1  0
 11 12  2  0
M  END
$$$$

     RDKit          3D

 12 13  0  0  0  0  0  0  0  0999 V2000
  138.7241  151.5757  143.3192 C   0  0  0  0  0  0  0  0  0  0  0  0
  137.9190  152.3259  143.7537 C   0  0  0  0  0  0  0  0  0  0  0  0
  136.7519  151.8077  144.4387 C   0  0  0  0  0  0  0  0  0  0  0  0
  136.7823  150.4615  144.6818 C   0  0  0  0  0  0  0  0  0  0  0  0
  138.6205  150.0970  143.3707 C   0  0  0  0  0  0  0  0  0  0  0  0
  139.5749  149.2565  142.7744 C   0  0  0  0  0  0  0  0  0  0  0  0
  135.7847  149.9445  145.6716 C   0  0  0  0  0  0  0  0  0  0  0  0
  136.0059  152.8716  145.1013 C   0  0  0  0  0  0  0  0  0  0  0  0
  137.6899  149.6971  144.1009 N   0  0  0  0  0  0  0  0  0  0  0  0
  136.3550  154.2074  145.1402 C   0  0  0  0  0  0  0  0  0  0  0  0
  134.7491  152.4926  145.6247 C   0  0  0  0  0  0  0  0  0  0  0  0
  134.8584  151.1109  145.8908 C   0  0  0  0  0  0  0  0  0  0  0  0
  1  2  1  0
  2  3  2  0
  3  4  1  0
  1  5  2  0
  5  6  1  0
  4  7  1  0
  3  8  1  0
  4  9  2  0
  5  9  1  0
  8 10  1  0
  8 11  2  0
  7 12  2  0
 11 12  1  0
M  END
$$$$

     RDKit          3D

 12 13  0  0  0  0  0  0  0  0999 V2000
  140.3043  150.2153  139.4787 Cl  0  0  0  0  0  0  0  0  0  0  0  0
  138.6777  150.1901  140.5340 C   0  0  0  0  0  0  0  0  0  0  0  0
  137.6379  149.3864  140.0971 C   0  0  0  0  0  0  0  0  0  0  0  0
  138.7740  150.9330  141.6513 C   0  0  0  0  0  0  0  0  0  0  0  0
  138.1503  150.9121  142.4451 C   0  0  0  0  0  0  0  0  0  0  0  0
  138.2393  151.5036  143.8900 C   0  0  0  0  0  0  0  0  0  0  0  0
  136.9238  150.2035  142.6659 C   0  0  0  0  0  0  0  0  0  0  0  0
  136.0630  150.3375  143.8286 C   0  0  0  0  0  0  0  0  0  0  0  0
  137.6037  148.9501  138.8616 C   0  0  0  0  0  0  0  0  0  0  0  0
  136.5105  149.1878  140.6212 C   0  0  0  0  0  0  0  0  0  0  0  0
  137.1882  151.4651  144.6423 C   0  0  0  0  0  0  0  0  0  0  0  0
  136.0782  149.5568  141.7054 N   0  0  0  0  0  0  0  0  0  0  0  0
  1  2  1  0
  2  3  1  0
  2  4  2  0
  4  5  1  0
  5  6  1  0
  5  7  2  0
  7  8  1  0
  3  9  1  0
  3 10  1  0
  6 11  2  0
  8 11  1  0
  7 12  1  0
 10 12  2  0
M  END
$$$$

     RDKit          3D

 12 13  0  0  0  0  0  0  0  0999 V2000
  139.2617  151.0924  142.4042 C   0  0  0  0  0  0  0  0  0  0  0  0
  138.8616  152.1308  142.9030 C   0  0  0  0  0  0  0  0  0  0  0  0
  137.7833  151.8925  143.8931 C   0  0  0  0  0  0  0  0  0  0  0  0
  137.3594  150.5408  144.0624 C   0  0  0  0  0  0  0  0  0  0  0  0
  136.3237  150.4660  145.1229 C   0  0  0  0  0  0  0  0  0  0  0  0
  139.2662  149.7548  142.8052 C   0  0  0  0  0  0  0  0  0  0  0  0
  139.9773  151.1303  141.1428 C   0  0  0  0  0  0  0  0  0  0  0  0
  138.1349  149.4647  143.7648 C   0  0  0  0  0  0  0  0  0  0  0  0
  139.8404  150.2868  140.0573 C   0  0  0  0  0  0  0  0  0  0  0  0
  135.7437  151.5984  145.3607 C   0  0  0  0  0  0  0  0  0  0  0  0
  135.9587  152.7759  144.7581 C   0  0  0  0  0  0  0  0  0  0  0  0
  137.1520  152.9663  144.1496 C   0  0  0  0  0  0  0  0  0  0  0  0
  1  2  1  0
  2  3  2  0
  3  4  1  0
  4  5  2  0
  1  6  1  0
  1  7  2  3
  4  8  1  0
  6  8  2  0
  7  9  1  0
  5 10  1  0
 10 11  2  0
  3 12  1  0
 11 12  1  0
M  END
$$$$

     RDKit          3D

 12 13  0  0  0  0  0  0  0  0999 V2000
  138.9700  151.3142  142.5680 C   0  0  0  0  0  0  0  0  0  0  0  0
  138.6028  152.0888  143.2649 C   0  0  0  0  0  0  0  0  0  0  0  0
  139.7534  151.4391  141.3513 C   0  0  0  0  0  0  0  0  0  0  0  0
  137.7662  151.7110  144.3568 C   0  0  0  0  0  0  0  0  0  0  0  0
  139.6325  150.5472  140.2940 C   0  0  0  0  0  0  0  0  0  0  0  0
  138.5815  149.7637  142.5697 C   0  0  0  0  0  0  0  0  0  0  0  0
  136.9303  152.7248  144.9784 C   0  0  0  0  0  0  0  0  0  0  0  0
  137.8673  149.5063  143.8006 C   0  0  0  0  0  0  0  0  0  0  0  0
  138.9484  149.4300  140.3913 C   0  0  0  0  0  0  0  0  0  0  0  0
  140.6001  151.1301  139.2399 C   0  0  0  0  0  0  0  0  0  0  0  0
  138.4770  149.0052  141.5282 C   0  0  0  0  0  0  0  0  0  0  0  0
  137.5001  150.3790  144.7283 C   0  0  0  0  0  0  0  0  0  0  0  0
  1  2  1  0
  1  3  1  0
  2  4  2  0
  3  5  2  0
  1  6  2  0
  4  7  1  0
  6  8  1  0
  5  9  1  0
  5 10  1  0
  6 11  1  0
  9 11  2  0
  4 12  1  0
  8 12  2  0
M  END
$$$$

     RDKit          3D

 12 13  0  0  0  0  0  0  0  0999 V2000
  139.2617  151.0924  142.4042 C   0  0  0  0  0  0  0  0  0  0  0  0
  138.8616  152.1308  142.9030 C   0  0  0  0  0  0  0  0  0  0  0  0
  137.7833  151.8925  143.8931 C   0  0  0  0  0  0  0  0  0  0  0  0
  137.3594  150.5408  144.0624 C   0  0  0  0  0  0  0  0  0  0  0  0
  136.3237  150.4660  145.1229 C   0  0  0  0  0  0  0  0  0  0  0  0
  139.2662  149.7548  142.8052 C   0  0  0  0  0  0  0  0  0  0  0  0
  137.9821  149.5363  143.6363 C   0  0  0  0  0  0  0  0  0  0  0  0
  135.7431  151.6428  145.3945 C   0  0  0  0  0  0  0  0  0  0  0  0
  136.9313  152.8329  144.5592 C   0  0  0  0  0  0  0  0  0  0  0  0
  136.0398  152.8058  145.2853 C   0  0  0  0  0  0  0  0  0  0  0  0
  135.3446  154.0566  145.8365 C   0  0  0  0  0  0  0  0  0  0  0  0
  140.2919  151.2888  141.2959 O   0  0  0  0  0  0  0  0  0  0  0  0
  1  2  1  0
  2  3  2  0
  3  4  1  0
  4  5  2  0
  1  6  1  0
  4  7  1  0
  6  7  2  0
  5  8  1  0
  3  9  1  0
  8 10  2  0
  9 10  1  0
 10 11  1  0
  1 12  1  0
M  END
$$$$

     RDKit          3D

 12 13  0  0  0  0  0  0  0  0999 V2000
  139.3952  150.7507  142.0137 C   0  0  0  0  0  0  0  0  0  0  0  0
  139.0644  150.4897  140.7536 C   0  0  0  0  0  0  0  0  0  0  0  0
  138.4483  150.6369  143.0431 C   0  0  0  0  0  0  0  0  0  0  0  0
  137.8331  149.9861  140.4382 C   0  0  0  0  0  0  0  0  0  0  0  0
  136.8982  149.7660  141.3331 C   0  0  0  0  0  0  0  0  0  0  0  0
  138.7726  151.0467  144.4230 C   0  0  0  0  0  0  0  0  0  0  0  0
  137.7582  151.8318  144.9146 C   0  0  0  0  0  0  0  0  0  0  0  0
  136.5844  151.8374  144.4821 C   0  0  0  0  0  0  0  0  0  0  0  0
  137.1024  150.3544  142.7149 C   0  0  0  0  0  0  0  0  0  0  0  0
  136.1132  151.0089  143.4489 C   0  0  0  0  0  0  0  0  0  0  0  0
  135.4676  152.6441  145.3818 C   0  0  0  0  0  0  0  0  0  0  0  0
  140.2298  150.7919  139.6703 C   0  0  0  0  0  0  0  0  0  0  0  0
  1  2  2  0
  1  3  1  0
  2  4  1  0
  4  5  2  0
  3  6  1  0
  6  7  2  0
  7  8  1  0
  3  9  2  0
  5  9  1  0
  8 10  2  0
  9 10  1  0
  8 11  1  0
  2 12  1  0
M  END
$$$$

     RDKit          3D

 12 13  0  0  0  0  0  0  0  0999 V2000
  139.3443  149.9938  140.5872 C   0  0  0  0  0  0  0  0  0  0  0  0
  138.9756  149.9372  139.3587 C   0  0  0  0  0  0  0  0  0  0  0  0
  138.5880  150.0764  141.6359 C   0  0  0  0  0  0  0  0  0  0  0  0
  137.2185  149.9023  141.8334 C   0  0  0  0  0  0  0  0  0  0  0  0
  136.5002  149.8297  140.5761 C   0  0  0  0  0  0  0  0  0  0  0  0
  139.1863  150.3537  143.1491 C   0  0  0  0  0  0  0  0  0  0  0  0
  138.2367  150.9497  144.0909 C   0  0  0  0  0  0  0  0  0  0  0  0
  139.7225  149.8955  138.1707 C   0  0  0  0  0  0  0  0  0  0  0  0
  137.4057  149.7488  139.2377 C   0  0  0  0  0  0  0  0  0  0  0  0
  136.4414  150.1564  142.7487 N   0  0  0  0  0  0  0  0  0  0  0  0
  136.8987  150.6747  144.0042 C   0  0  0  0  0  0  0  0  0  0  0  0
  136.1228  151.1055  145.0722 C   0  0  0  0  0  0  0  0  0  0  0  0
  1  2  2  0
  1  3  1  0
  3  4  1  0
  4  5  2  0
  3  6  1  0
  6  7  2  0
  2  8  1  0
  2  9  1  0
  5  9  1  0
  4 10  1  0
  7 11  1  0
 10 11  2  0
 11 12  1  0
M  END
$$$$

     RDKit          3D

 12 13  0  0  0  0  0  0  0  0999 V2000
  139.2617  151.0924  142.4042 C   0  0  0  0  0  0  0  0  0  0  0  0
  138.8616  152.1308  142.9030 C   0  0  0  0  0  0  0  0  0  0  0  0
  137.7833  151.8925  143.8931 C   0  0  0  0  0  0  0  0  0  0  0  0
  137.3594  150.5408  144.0624 C   0  0  0  0  0  0  0  0  0  0  0  0
  136.3237  150.4660  145.1229 C   0  0  0  0  0  0  0  0  0  0  0  0
  139.2662  149.7548  142.8052 C   0  0  0  0  0  0  0  0  0  0  0  0
  137.9821  149.5363  143.6363 C   0  0  0  0  0  0  0  0  0  0  0  0
  135.7431  151.6428  145.3945 C   0  0  0  0  0  0  0  0  0  0  0  0
  140.2499  151.3279  141.2676 C   0  0  0  0  0  0  0  0  0  0  0  0
  136.9159  152.8317  144.5864 C   0  0  0  0  0  0  0  0  0  0  0  0
  136.0893  152.7634  145.4415 C   0  0  0  0  0  0  0  0  0  0  0  0
  140.1942  150.4817  140.1165 C   0  0  0  0  0  0  0  0  0  0  0  0
  1  2  1  0
  2  3  2  0
  3  4  1  0
  4  5  2  0
  1  6  1  0
  4  7  1  0
  6  7  2  0
  5  8  1  0
  1  9  2  3
  3 10  1  0
  8 11  2  0
 10 11  2  0
  9 12  1  0
M  END
$$$$

     RDKit          3D

 12 13  0  0  0  0  0  0  0  0999 V2000
  139.2617  151.0924  142.4042 C   0  0  0  0  0  0  0  0  0  0  0  0
  138.8616  152.1308  142.9030 C   0  0  0  0  0  0  0  0  0  0  0  0
  137.9129  151.7989  143.7815 C   0  0  0  0  0  0  0  0  0  0  0  0
  138.8296  150.4005  141.6037 C   0  0  0  0  0  0  0  0  0  0  0  0
  137.2795  150.5116  143.6586 C   0  0  0  0  0  0  0  0  0  0  0  0
  139.3647  149.8221  140.3408 C   0  0  0  0  0  0  0  0  0  0  0  0
  140.5310  149.7146  139.9599 C   0  0  0  0  0  0  0  0  0  0  0  0
  138.3249  149.5444  139.4316 C   0  0  0  0  0  0  0  0  0  0  0  0
  137.4971  149.8620  142.5178 C   0  0  0  0  0  0  0  0  0  0  0  0
  138.7602  149.3777  138.0707 C   0  0  0  0  0  0  0  0  0  0  0  0
  140.0572  149.2204  137.9659 C   0  0  0  0  0  0  0  0  0  0  0  0
  141.0688  149.4061  138.8535 C   0  0  0  0  0  0  0  0  0  0  0  0
  1  2  1  0
  2  3  2  0
  1  4  2  0
  3  5  1  0
  4  6  1  0
  6  7  1  0
  6  8  2  0
  4  9  1  0
  5  9  2  0
  8 10  1  0
 10 11  2  0
  7 12  2  0
 11 12  1  0
M  END
$$$$

     RDKit          3D

 12 13  0  0  0  0  0  0  0  0999 V2000
  138.9700  151.3142  142.5680 C   0  0  0  0  0  0  0  0  0  0  0  0
  138.6028  152.0888  143.2649 C   0  0  0  0  0  0  0  0  0  0  0  0
  137.4885  151.7627  144.1910 C   0  0  0  0  0  0  0  0  0  0  0  0
  139.9946  151.3890  141.4262 C   0  0  0  0  0  0  0  0  0  0  0  0
  137.1413  150.3696  144.0327 C   0  0  0  0  0  0  0  0  0  0  0  0
  138.4285  149.9931  142.3915 C   0  0  0  0  0  0  0  0  0  0  0  0
  136.7928  152.5100  145.0952 C   0  0  0  0  0  0  0  0  0  0  0  0
  136.2482  149.9545  145.1369 C   0  0  0  0  0  0  0  0  0  0  0  0
  137.5579  149.4486  143.2511 N   0  0  0  0  0  0  0  0  0  0  0  0
  135.8304  152.0696  145.8493 C   0  0  0  0  0  0  0  0  0  0  0  0
  135.5627  150.6833  145.9420 C   0  0  0  0  0  0  0  0  0  0  0  0
  139.7669  150.8641  140.2459 C   0  0  0  0  0  0  0  0  0  0  0  0
  1  2  1  0
  2  3  2  0
  1  4  1  0
  3  5  1  0
  1  6  2  0
  3  7  1  0
  5  8  1  0
  5  9  2  0
  6  9  1  0
  7 10  2  0
  8 11  2  0
 10 11  1  0
  4 12  1  0
M  END
$$$$

     RDKit          3D

 12 12  0  0  0  0  0  0  0  0999 V2000
  138.7088  151.1469  142.6270 C   0  0  0  0  0  0  0  0  0  0  0  0
  138.5262  151.9374  143.5115 C   0  0  0  0  0  0  0  0  0  0  0  0
  137.3922  151.8105  144.0744 C   0  0  0  0  0  0  0  0  0  0  0  0
  138.6989  150.6878  141.4235 C   0  0  0  0  0  0  0  0  0  0  0  0
  136.4557  150.8644  143.7045 C   0  0  0  0  0  0  0  0  0  0  0  0
  136.7425  152.6554  145.2883 C   0  0  0  0  0  0  0  0  0  0  0  0
  139.2512  150.0236  140.1454 C   0  0  0  0  0  0  0  0  0  0  0  0
  138.2793  149.5157  139.4520 C   0  0  0  0  0  0  0  0  0  0  0  0
  140.5055  150.4220  139.9459 C   0  0  0  0  0  0  0  0  0  0  0  0
  140.9970  149.8942  138.6474 C   0  0  0  0  0  0  0  0  0  0  0  0
  138.7099  149.0560  138.1252 C   0  0  0  0  0  0  0  0  0  0  0  0
  140.0509  149.1626  137.6818 C   0  0  0  0  0  0  0  0  0  0  0  0
  1  2  1  0
  2  3  2  3
  1  4  3  0
  3  5  1  0
  3  6  1  0
  4  7  1  0
  7  8  2  0
  7  9  1  0
  9 10  2  0
  8 11  1  0
 10 12  1  0
 11 12  2  0
M  END
$$$$

     RDKit          3D

 12 13  0  0  0  0  0  0  0  0999 V2000
  138.7241  151.5757  143.3192 C   0  0  0  0  0  0  0  0  0  0  0  0
  137.9190  152.3259  143.7537 C   0  0  0  0  0  0  0  0  0  0  0  0
  136.7519  151.8077  144.4387 C   0  0  0  0  0  0  0  0  0  0  0  0
  136.7823  150.4615  144.6818 C   0  0  0  0  0  0  0  0  0  0  0  0
  135.7184  152.5072  144.9787 C   0  0  0  0  0  0  0  0  0  0  0  0
  138.4930  150.1677  143.2342 C   0  0  0  0  0  0  0  0  0  0  0  0
  135.6438  153.7445  145.2264 C   0  0  0  0  0  0  0  0  0  0  0  0
  135.8814  149.9088  145.6568 C   0  0  0  0  0  0  0  0  0  0  0  0
  134.5885  151.7056  145.4186 C   0  0  0  0  0  0  0  0  0  0  0  0
  136.2714  148.8667  146.4944 O   0  0  0  0  0  0  0  0  0  0  0  0
  134.6951  150.4706  145.8021 C   0  0  0  0  0  0  0  0  0  0  0  0
  137.7221  149.5276  144.1176 C   0  0  0  0  0  0  0  0  0  0  0  0
  1  2  1  0
  2  3  2  0
  3  4  1  0
  3  5  1  0
  1  6  2  0
  5  7  1  0
  4  8  1  0
  5  9  2  0
  8 10  1  0
  8 11  2  0
  9 11  1  0
  4 12  2  0
  6 12  1  0
M  END
$$$$

     RDKit          3D

 12 13  0  0  0  0  0  0  0  0999 V2000
  138.9700  151.3142  142.5680 C   0  0  0  0  0  0  0  0  0  0  0  0
  138.6028  152.0888  143.2649 C   0  0  0  0  0  0  0  0  0  0  0  0
  137.4885  151.7627  144.1910 C   0  0  0  0  0  0  0  0  0  0  0  0
  137.1685  150.4112  144.2718 C   0  0  0  0  0  0  0  0  0  0  0  0
  136.7824  152.6364  145.0888 C   0  0  0  0  0  0  0  0  0  0  0  0
  138.5870  149.8397  142.4014 C   0  0  0  0  0  0  0  0  0  0  0  0
  137.0923  153.8621  145.1626 C   0  0  0  0  0  0  0  0  0  0  0  0
  135.6389  152.2000  145.4751 C   0  0  0  0  0  0  0  0  0  0  0  0
  134.6874  153.0288  146.0279 C   0  0  0  0  0  0  0  0  0  0  0  0
  136.3363  149.9454  145.2745 C   0  0  0  0  0  0  0  0  0  0  0  0
  137.7959  149.5250  143.3778 C   0  0  0  0  0  0  0  0  0  0  0  0
  135.1053  151.0119  145.6398 C   0  0  0  0  0  0  0  0  0  0  0  0
  1  2  1  0
  2  3  2  0
  3  4  1  0
  3  5  1  0
  1  6  2  0
  5  7  1  0
  5  8  2  0
  8  9  1  0
  4 10  1  0
  4 11  2  0
  6 11  1  0
  8 12  1  0
 10 12  1  0
M  END
$$$$

     RDKit          3D

 12 13  0  0  0  0  0  0  0  0999 V2000
  139.2617  151.0924  142.4042 C   0  0  0  0  0  0  0  0  0  0  0  0
  138.8616  152.1308  142.9030 C   0  0  0  0  0  0  0  0  0  0  0  0
  137.7833  151.8925  143.8931 C   0  0  0  0  0  0  0  0  0  0  0  0
  137.3594  150.5408  144.0624 C   0  0  0  0  0  0  0  0  0  0  0  0
  136.3237  150.4660  145.1229 C   0  0  0  0  0  0  0  0  0  0  0  0
  139.2662  149.7548  142.8052 C   0  0  0  0  0  0  0  0  0  0  0  0
  137.9821  149.5363  143.6363 C   0  0  0  0  0  0  0  0  0  0  0  0
  135.7431  151.6428  145.3945 C   0  0  0  0  0  0  0  0  0  0  0  0
  135.0389  151.9320  146.5128 C   0  0  0  0  0  0  0  0  0  0  0  0
  140.2529  151.3216  141.2620 C   0  0  0  0  0  0  0  0  0  0  0  0
  136.9276  152.8160  144.6572 C   0  0  0  0  0  0  0  0  0  0  0  0
  139.9886  150.4724  140.0393 C   0  0  0  0  0  0  0  0  0  0  0  0
  1  2  1  0
  2  3  2  0
  3  4  1  0
  4  5  2  0
  1  6  1  0
  4  7  1  0
  6  7  2  0
  5  8  1  0
  8  9  1  0
  1 10  1  0
  3 11  1  0
  8 11  1  0
 10 12  1  0
M  END
$$$$

     RDKit          3D

 12 13  0  0  0  0  0  0  0  0999 V2000
  139.3443  149.9938  140.5872 C   0  0  0  0  0  0  0  0  0  0  0  0
  138.9756  149.9372  139.3587 C   0  0  0  0  0  0  0  0  0  0  0  0
  138.5880  150.0764  141.6359 C   0  0  0  0  0  0  0  0  0  0  0  0
  137.2185  149.9023  141.8334 C   0  0  0  0  0  0  0  0  0  0  0  0
  136.5002  149.8297  140.5761 C   0  0  0  0  0  0  0  0  0  0  0  0
  139.1863  150.3537  143.1491 C   0  0  0  0  0  0  0  0  0  0  0  0
  138.2367  150.9497  144.0909 C   0  0  0  0  0  0  0  0  0  0  0  0
  137.4014  149.7126  139.0688 C   0  0  0  0  0  0  0  0  0  0  0  0
  136.3713  150.1576  142.7324 C   0  0  0  0  0  0  0  0  0  0  0  0
  136.9364  150.6877  143.9989 C   0  0  0  0  0  0  0  0  0  0  0  0
  136.1304  151.1478  145.1270 C   0  0  0  0  0  0  0  0  0  0  0  0
  135.1907  152.1448  144.9230 C   0  0  0  0  0  0  0  0  0  0  0  0
  1  2  2  0
  1  3  1  0
  3  4  1  0
  4  5  2  0
  3  6  1  0
  6  7  2  0
  2  8  1  0
  5  8  1  0
  4  9  1  0
  7 10  1  0
  9 10  2  0
 10 11  1  0
 11 12  1  0
M  END
$$$$

     RDKit          3D

 12 13  0  0  0  0  0  0  0  0999 V2000
  138.9700  151.3142  142.5680 C   0  0  0  0  0  0  0  0  0  0  0  0
  138.6028  152.0888  143.2649 C   0  0  0  0  0  0  0  0  0  0  0  0
  137.4885  151.7627  144.1910 C   0  0  0  0  0  0  0  0  0  0  0  0
  137.1685  150.4112  144.2718 C   0  0  0  0  0  0  0  0  0  0  0  0
  136.7824  152.6364  145.0888 C   0  0  0  0  0  0  0  0  0  0  0  0
  138.5870  149.8397  142.4014 C   0  0  0  0  0  0  0  0  0  0  0  0
  137.0923  153.8621  145.1626 C   0  0  0  0  0  0  0  0  0  0  0  0
  135.6389  152.2000  145.4751 C   0  0  0  0  0  0  0  0  0  0  0  0
  134.6874  153.0288  146.0279 C   0  0  0  0  0  0  0  0  0  0  0  0
  136.3363  149.9454  145.2745 C   0  0  0  0  0  0  0  0  0  0  0  0
  135.2989  150.7673  145.7224 C   0  0  0  0  0  0  0  0  0  0  0  0
  137.7897  149.4930  143.4250 N   0  0  0  0  0  0  0  0  0  0  0  0
  1  2  1  0
  2  3  2  0
  3  4  1  0
  3  5  1  0
  1  6  2  0
  5  7  1  0
  5  8  2  0
  8  9  1  0
  4 10  1  0
  8 11  1  0
 10 11  2  0
  4 12  2  0
  6 12  1  0
M  END
$$$$

     RDKit          3D

 12 13  0  0  0  0  0  0  0  0999 V2000
  139.3952  150.7507  142.0137 C   0  0  0  0  0  0  0  0  0  0  0  0
  139.0644  150.4897  140.7536 C   0  0  0  0  0  0  0  0  0  0  0  0
  138.4483  150.6369  143.0431 C   0  0  0  0  0  0  0  0  0  0  0  0
  137.8331  149.9861  140.4382 C   0  0  0  0  0  0  0  0  0  0  0  0
  136.8982  149.7660  141.3331 C   0  0  0  0  0  0  0  0  0  0  0  0
  138.7726  151.0467  144.4230 C   0  0  0  0  0  0  0  0  0  0  0  0
  137.7582  151.8318  144.9146 C   0  0  0  0  0  0  0  0  0  0  0  0
  136.5844  151.8374  144.4821 C   0  0  0  0  0  0  0  0  0  0  0  0
  137.0251  150.4386  142.6613 C   0  0  0  0  0  0  0  0  0  0  0  0
  135.9551  150.8785  143.4763 C   0  0  0  0  0  0  0  0  0  0  0  0
  140.0531  150.6214  139.7011 C   0  0  0  0  0  0  0  0  0  0  0  0
  135.3539  152.8701  145.1332 Cl  0  0  0  0  0  0  0  0  0  0  0  0
  1  2  2  0
  1  3  1  0
  2  4  1  0
  4  5  2  0
  3  6  1  0
  6  7  2  0
  7  8  1  0
  3  9  2  0
  5  9  1  0
  8 10  2  0
  9 10  1  0
  2 11  1  0
  8 12  1  0
M  END
$$$$

     RDKit          3D

 12 13  0  0  0  0  0  0  0  0999 V2000
  138.7241  151.5757  143.3192 C   0  0  0  0  0  0  0  0  0  0  0  0
  137.9190  152.3259  143.7537 C   0  0  0  0  0  0  0  0  0  0  0  0
  136.7519  151.8077  144.4387 C   0  0  0  0  0  0  0  0  0  0  0  0
  136.7823  150.4615  144.6818 C   0  0  0  0  0  0  0  0  0  0  0  0
  135.7184  152.5072  144.9787 C   0  0  0  0  0  0  0  0  0  0  0  0
  138.4930  150.1677  143.2342 C   0  0  0  0  0  0  0  0  0  0  0  0
  135.6438  153.7445  145.2264 C   0  0  0  0  0  0  0  0  0  0  0  0
  135.8814  149.9088  145.6568 C   0  0  0  0  0  0  0  0  0  0  0  0
  134.5885  151.7056  145.4186 C   0  0  0  0  0  0  0  0  0  0  0  0
  137.7286  149.4826  144.1249 C   0  0  0  0  0  0  0  0  0  0  0  0
  136.3089  148.8574  146.4364 O   0  0  0  0  0  0  0  0  0  0  0  0
  134.6046  150.4963  145.8270 C   0  0  0  0  0  0  0  0  0  0  0  0
  1  2  1  0
  2  3  2  0
  3  4  1  0
  3  5  1  0
  1  6  2  0
  5  7  1  0
  4  8  1  0
  5  9  2  0
  4 10  2  0
  6 10  1  0
  8 11  2  0
  8 12  1  0
  9 12  1  0
M  END
$$$$

     RDKit          3D

 12 13  0  0  0  0  0  0  0  0999 V2000
  140.3043  150.2153  139.4787 Cl  0  0  0  0  0  0  0  0  0  0  0  0
  138.6777  150.1901  140.5340 C   0  0  0  0  0  0  0  0  0  0  0  0
  137.6379  149.3864  140.0971 C   0  0  0  0  0  0  0  0  0  0  0  0
  138.7740  150.9330  141.6513 C   0  0  0  0  0  0  0  0  0  0  0  0
  137.6926  150.8816  142.5542 C   0  0  0  0  0  0  0  0  0  0  0  0
  137.8475  151.5161  143.9010 C   0  0  0  0  0  0  0  0  0  0  0  0
  136.6428  150.1161  142.0733 C   0  0  0  0  0  0  0  0  0  0  0  0
  138.8541  152.0576  144.3014 O   0  0  0  0  0  0  0  0  0  0  0  0
  135.3998  150.2894  142.9437 C   0  0  0  0  0  0  0  0  0  0  0  0
  136.5295  149.5146  140.8289 C   0  0  0  0  0  0  0  0  0  0  0  0
  135.7682  151.1598  144.1314 C   0  0  0  0  0  0  0  0  0  0  0  0
  136.7474  151.5042  144.7079 N   0  0  0  0  0  0  0  0  0  0  0  0
  1  2  1  0
  2  3  1  0
  2  4  2  0
  4  5  1  0
  5  6  1  0
  5  7  2  0
  6  8  2  0
  7  9  1  0
  3 10  2  0
  7 10  1  0
  9 11  1  0
  6 12  1  0
 11 12  2  0
M  END
$$$$

     RDKit          3D

 12 13  0  0  0  0  0  0  0  0999 V2000
  140.3043  150.2153  139.4787 Cl  0  0  0  0  0  0  0  0  0  0  0  0
  138.6777  150.1901  140.5340 C   0  0  0  0  0  0  0  0  0  0  0  0
  137.6379  149.3864  140.0971 C   0  0  0  0  0  0  0  0  0  0  0  0
  138.7740  150.9330  141.6513 C   0  0  0  0  0  0  0  0  0  0  0  0
  137.6926  150.8816  142.5542 C   0  0  0  0  0  0  0  0  0  0  0  0
  137.8475  151.5161  143.9010 C   0  0  0  0  0  0  0  0  0  0  0  0
  136.6428  150.1161  142.0733 C   0  0  0  0  0  0  0  0  0  0  0  0
  138.8541  152.0576  144.3014 O   0  0  0  0  0  0  0  0  0  0  0  0
  135.3998  150.2894  142.9437 C   0  0  0  0  0  0  0  0  0  0  0  0
  136.5295  149.5146  140.8289 C   0  0  0  0  0  0  0  0  0  0  0  0
  135.7682  151.1598  144.1314 C   0  0  0  0  0  0  0  0  0  0  0  0
  137.0330  151.4202  144.6043 N   0  0  0  0  0  0  0  0  0  0  0  0
  1  2  1  0
  2  3  1  0
  2  4  2  0
  4  5  1  0
  5  6  1  0
  5  7  2  0
  6  8  2  0
  7  9  1  0
  3 10  2  0
  7 10  1  0
  9 11  1  0
  6 12  1  0
 11 12  1  0
M  END
$$$$

     RDKit          3D

 12 13  0  0  0  0  0  0  0  0999 V2000
  139.3443  149.9938  140.5872 C   0  0  0  0  0  0  0  0  0  0  0  0
  138.9756  149.9372  139.3587 C   0  0  0  0  0  0  0  0  0  0  0  0
  138.5880  150.0764  141.6359 C   0  0  0  0  0  0  0  0  0  0  0  0
  137.6059  149.8647  139.0257 C   0  0  0  0  0  0  0  0  0  0  0  0
  137.1676  149.4968  137.7630 O   0  0  0  0  0  0  0  0  0  0  0  0
  136.5842  149.6761  139.7231 C   0  0  0  0  0  0  0  0  0  0  0  0
  139.1043  150.3500  143.0327 C   0  0  0  0  0  0  0  0  0  0  0  0
  138.4320  151.2968  143.7316 C   0  0  0  0  0  0  0  0  0  0  0  0
  137.3538  151.6103  143.5439 C   0  0  0  0  0  0  0  0  0  0  0  0
  137.1066  150.2457  141.6554 C   0  0  0  0  0  0  0  0  0  0  0  0
  136.4251  151.3815  142.3549 C   0  0  0  0  0  0  0  0  0  0  0  0
  136.2862  149.7902  140.8155 C   0  0  0  0  0  0  0  0  0  0  0  0
  1  2  2  0
  1  3  1  0
  2  4  1  0
  4  5  1  0
  4  6  2  0
  3  7  1  0
  7  8  2  0
  8  9  1  0
  3 10  2  0
  9 11  2  0
 10 11  1  0
  6 12  1  0
 10 12  1  0
M  END
$$$$

     RDKit          3D

 12 13  0  0  0  0  0  0  0  0999 V2000
  140.3043  150.2153  139.4787 Cl  0  0  0  0  0  0  0  0  0  0  0  0
  138.6777  150.1901  140.5340 C   0  0  0  0  0  0  0  0  0  0  0  0
  137.6379  149.3864  140.0971 C   0  0  0  0  0  0  0  0  0  0  0  0
  138.7740  150.9330  141.6513 C   0  0  0  0  0  0  0  0  0  0  0  0
  137.6926  150.8816  142.5542 C   0  0  0  0  0  0  0  0  0  0  0  0
  137.8475  151.5161  143.9010 C   0  0  0  0  0  0  0  0  0  0  0  0
  136.6428  150.1161  142.0733 C   0  0  0  0  0  0  0  0  0  0  0  0
  138.8541  152.0576  144.3014 O   0  0  0  0  0  0  0  0  0  0  0  0
  135.3998  150.2894  142.9437 C   0  0  0  0  0  0  0  0  0  0  0  0
  136.4389  149.4879  140.8035 C   0  0  0  0  0  0  0  0  0  0  0  0
  135.7731  151.1456  144.1413 C   0  0  0  0  0  0  0  0  0  0  0  0
  136.7967  151.5706  144.7063 C   0  0  0  0  0  0  0  0  0  0  0  0
  1  2  1  0
  2  3  1  0
  2  4  2  0
  4  5  1  0
  5  6  1  0
  5  7  2  0
  6  8  2  0
  7  9  1  0
  3 10  2  0
  7 10  1  0
  9 11  1  0
  6 12  1  0
 11 12  2  0
M  END
$$$$

     RDKit          3D

 12 13  0  0  0  0  0  0  0  0999 V2000
  139.3952  150.7507  142.0137 C   0  0  0  0  0  0  0  0  0  0  0  0
  139.0644  150.4897  140.7536 C   0  0  0  0  0  0  0  0  0  0  0  0
  138.4483  150.6369  143.0431 C   0  0  0  0  0  0  0  0  0  0  0  0
  137.8331  149.9861  140.4382 C   0  0  0  0  0  0  0  0  0  0  0  0
  136.8982  149.7660  141.3331 C   0  0  0  0  0  0  0  0  0  0  0  0
  138.7726  151.0467  144.4230 C   0  0  0  0  0  0  0  0  0  0  0  0
  137.7582  151.8318  144.9146 C   0  0  0  0  0  0  0  0  0  0  0  0
  136.5167  151.8610  144.3904 C   0  0  0  0  0  0  0  0  0  0  0  0
  135.4690  149.5662  140.9951 C   0  0  0  0  0  0  0  0  0  0  0  0
  135.4950  152.5822  145.1972 C   0  0  0  0  0  0  0  0  0  0  0  0
  137.1316  150.4982  142.8915 C   0  0  0  0  0  0  0  0  0  0  0  0
  136.2898  150.8560  143.5239 C   0  0  0  0  0  0  0  0  0  0  0  0
  1  2  2  0
  1  3  1  0
  2  4  1  0
  4  5  2  0
  3  6  1  0
  6  7  2  0
  7  8  1  0
  5  9  1  0
  8 10  1  0
  3 11  2  0
  5 11  1  0
  8 12  2  0
 11 12  1  0
M  END
$$$$

     RDKit          3D

 12 12  0  0  0  0  0  0  0  0999 V2000
  138.7241  151.5757  143.3192 C   0  0  0  0  0  0  0  0  0  0  0  0
  137.9190  152.3259  143.7537 C   0  0  0  0  0  0  0  0  0  0  0  0
  136.7519  151.8077  144.4387 C   0  0  0  0  0  0  0  0  0  0  0  0
  138.5728  150.7614  142.3615 C   0  0  0  0  0  0  0  0  0  0  0  0
  136.5049  150.5076  144.1699 C   0  0  0  0  0  0  0  0  0  0  0  0
  137.6888  149.6609  142.4410 C   0  0  0  0  0  0  0  0  0  0  0  0
  136.7048  149.5738  143.2471 C   0  0  0  0  0  0  0  0  0  0  0  0
  135.9760  152.6310  145.3813 C   0  0  0  0  0  0  0  0  0  0  0  0
  136.2348  153.9848  145.5373 C   0  0  0  0  0  0  0  0  0  0  0  0
  139.4593  150.9139  141.0440 C   0  0  0  0  0  0  0  0  0  0  0  0
  134.9402  152.1411  146.1200 C   0  0  0  0  0  0  0  0  0  0  0  0
  134.7938  152.7706  147.1839 C   0  0  0  0  0  0  0  0  0  0  0  0
  1  2  1  0
  2  3  2  0
  1  4  2  0
  3  5  1  0
  4  6  1  0
  5  7  2  0
  6  7  2  0
  3  8  1  0
  8  9  1  0
  4 10  1  0
  8 11  2  3
 11 12  1  0
M  END
$$$$

     RDKit          3D

 12 13  0  0  0  0  0  0  0  0999 V2000
  138.9700  151.3142  142.5680 C   0  0  0  0  0  0  0  0  0  0  0  0
  138.6028  152.0888  143.2649 C   0  0  0  0  0  0  0  0  0  0  0  0
  137.4885  151.7627  144.1910 C   0  0  0  0  0  0  0  0  0  0  0  0
  137.1685  150.4112  144.2718 C   0  0  0  0  0  0  0  0  0  0  0  0
  136.7824  152.6364  145.0888 C   0  0  0  0  0  0  0  0  0  0  0  0
  138.5870  149.8397  142.4014 C   0  0  0  0  0  0  0  0  0  0  0  0
  137.0923  153.8621  145.1626 C   0  0  0  0  0  0  0  0  0  0  0  0
  135.6389  152.2000  145.4751 C   0  0  0  0  0  0  0  0  0  0  0  0
  136.2937  149.9824  145.2586 C   0  0  0  0  0  0  0  0  0  0  0  0
  139.2032  149.0414  141.4563 C   0  0  0  0  0  0  0  0  0  0  0  0
  137.6762  149.3616  143.3832 C   0  0  0  0  0  0  0  0  0  0  0  0
  135.4263  150.8069  145.8319 C   0  0  0  0  0  0  0  0  0  0  0  0
  1  2  1  0
  2  3  2  0
  3  4  1  0
  3  5  1  0
  1  6  2  0
  5  7  1  0
  5  8  2  0
  4  9  1  0
  6 10  1  0
  4 11  2  0
  6 11  1  0
  8 12  1  0
  9 12  2  0
M  END
$$$$

     RDKit          3D

 12 13  0  0  0  0  0  0  0  0999 V2000
  138.7241  151.5757  143.3192 C   0  0  0  0  0  0  0  0  0  0  0  0
  137.9190  152.3259  143.7537 C   0  0  0  0  0  0  0  0  0  0  0  0
  136.7519  151.8077  144.4387 C   0  0  0  0  0  0  0  0  0  0  0  0
  136.7823  150.4615  144.6818 C   0  0  0  0  0  0  0  0  0  0  0  0
  135.7184  152.5072  144.9787 C   0  0  0  0  0  0  0  0  0  0  0  0
  138.4930  150.1677  143.2342 C   0  0  0  0  0  0  0  0  0  0  0  0
  135.6438  153.7445  145.2264 C   0  0  0  0  0  0  0  0  0  0  0  0
  135.8814  149.9088  145.6568 C   0  0  0  0  0  0  0  0  0  0  0  0
  134.5885  151.7056  145.4186 C   0  0  0  0  0  0  0  0  0  0  0  0
  136.2714  148.8667  146.4944 O   0  0  0  0  0  0  0  0  0  0  0  0
  134.7258  150.4502  145.9436 C   0  0  0  0  0  0  0  0  0  0  0  0
  137.6970  149.5753  144.0495 N   0  0  0  0  0  0  0  0  0  0  0  0
  1  2  1  0
  2  3  2  0
  3  4  1  0
  3  5  1  0
  1  6  2  0
  5  7  1  0
  4  8  1  0
  5  9  2  0
  8 10  1  0
  8 11  2  0
  9 11  1  0
  4 12  2  0
  6 12  1  0
M  END
$$$$

     RDKit          3D

 12 13  0  0  0  0  0  0  0  0999 V2000
  139.3443  149.9938  140.5872 C   0  0  0  0  0  0  0  0  0  0  0  0
  138.9756  149.9372  139.3587 C   0  0  0  0  0  0  0  0  0  0  0  0
  138.5880  150.0764  141.6359 C   0  0  0  0  0  0  0  0  0  0  0  0
  137.2185  149.9023  141.8334 C   0  0  0  0  0  0  0  0  0  0  0  0
  136.5002  149.8297  140.5761 C   0  0  0  0  0  0  0  0  0  0  0  0
  139.1863  150.3537  143.1491 C   0  0  0  0  0  0  0  0  0  0  0  0
  138.2367  150.9497  144.0909 C   0  0  0  0  0  0  0  0  0  0  0  0
  136.9516  150.8955  143.8600 C   0  0  0  0  0  0  0  0  0  0  0  0
  139.8797  149.9829  138.2590 C   0  0  0  0  0  0  0  0  0  0  0  0
  137.1264  149.7815  139.2395 C   0  0  0  0  0  0  0  0  0  0  0  0
  136.2984  150.5018  142.9702 C   0  0  0  0  0  0  0  0  0  0  0  0
  135.9919  151.6015  145.2908 Cl  0  0  0  0  0  0  0  0  0  0  0  0
  1  2  2  0
  1  3  1  0
  3  4  1  0
  4  5  2  0
  3  6  1  0
  6  7  2  0
  7  8  1  0
  2  9  1  0
  2 10  1  0
  5 10  1  0
  4 11  1  0
  8 11  2  0
  8 12  1  0
M  END
$$$$

     RDKit          3D

 12 13  0  0  0  0  0  0  0  0999 V2000
  138.7088  151.1469  142.6270 C   0  0  0  0  0  0  0  0  0  0  0  0
  138.5262  151.9374  143.5115 C   0  0  0  0  0  0  0  0  0  0  0  0
  137.3922  151.8105  144.0744 C   0  0  0  0  0  0  0  0  0  0  0  0
  136.5951  150.6201  143.9738 C   0  0  0  0  0  0  0  0  0  0  0  0
  137.9799  149.9622  142.2560 C   0  0  0  0  0  0  0  0  0  0  0  0
  136.5087  152.7504  145.0878 C   0  0  0  0  0  0  0  0  0  0  0  0
  135.4530  152.3058  145.6999 C   0  0  0  0  0  0  0  0  0  0  0  0
  135.4658  150.4722  144.8138 C   0  0  0  0  0  0  0  0  0  0  0  0
  134.8696  151.1447  145.6351 C   0  0  0  0  0  0  0  0  0  0  0  0
  136.9607  149.7629  143.0373 C   0  0  0  0  0  0  0  0  0  0  0  0
  140.0391  151.3655  141.7510 O   0  0  0  0  0  0  0  0  0  0  0  0
  139.9849  150.5590  140.5443 C   0  0  0  0  0  0  0  0  0  0  0  0
  1  2  1  0
  2  3  2  0
  3  4  1  0
  1  5  2  0
  3  6  1  0
  6  7  1  0
  4  8  1  0
  7  9  2  0
  8  9  2  0
  4 10  2  0
  5 10  1  0
  1 11  1  0
 11 12  1  0
M  END
$$$$

     RDKit          3D

 12 13  0  0  0  0  0  0  0  0999 V2000
  138.7241  151.5757  143.3192 C   0  0  0  0  0  0  0  0  0  0  0  0
  137.9190  152.3259  143.7537 C   0  0  0  0  0  0  0  0  0  0  0  0
  136.7519  151.8077  144.4387 C   0  0  0  0  0  0  0  0  0  0  0  0
  136.7823  150.4615  144.6818 C   0  0  0  0  0  0  0  0  0  0  0  0
  135.7184  152.5072  144.9787 C   0  0  0  0  0  0  0  0  0  0  0  0
  138.4930  150.1677  143.2342 C   0  0  0  0  0  0  0  0  0  0  0  0
  135.6438  153.7445  145.2264 C   0  0  0  0  0  0  0  0  0  0  0  0
  135.8814  149.9088  145.6568 C   0  0  0  0  0  0  0  0  0  0  0  0
  134.5885  151.7056  145.4186 C   0  0  0  0  0  0  0  0  0  0  0  0
  137.7286  149.4826  144.1249 C   0  0  0  0  0  0  0  0  0  0  0  0
  136.3089  148.8574  146.4364 O   0  0  0  0  0  0  0  0  0  0  0  0
  134.6700  150.5256  145.8049 N   0  0  0  0  0  0  0  0  0  0  0  0
  1  2  1  0
  2  3  2  0
  3  4  1  0
  3  5  1  0
  1  6  2  0
  5  7  1  0
  4  8  1  0
  5  9  2  0
  4 10  2  0
  6 10  1  0
  8 11  2  0
  8 12  1  0
  9 12  1  0
M  END
$$$$

     RDKit          3D

 12 13  0  0  0  0  0  0  0  0999 V2000
  138.9700  151.3142  142.5680 C   0  0  0  0  0  0  0  0  0  0  0  0
  138.6028  152.0888  143.2649 C   0  0  0  0  0  0  0  0  0  0  0  0
  137.4885  151.7627  144.1910 C   0  0  0  0  0  0  0  0  0  0  0  0
  137.1685  150.4112  144.2718 C   0  0  0  0  0  0  0  0  0  0  0  0
  136.7824  152.6364  145.0888 C   0  0  0  0  0  0  0  0  0  0  0  0
  138.5870  149.8397  142.4014 C   0  0  0  0  0  0  0  0  0  0  0  0
  137.0923  153.8621  145.1626 C   0  0  0  0  0  0  0  0  0  0  0  0
  135.6389  152.2000  145.4751 C   0  0  0  0  0  0  0  0  0  0  0  0
  134.6874  153.0288  146.0279 C   0  0  0  0  0  0  0  0  0  0  0  0
  136.3363  149.9454  145.2745 C   0  0  0  0  0  0  0  0  0  0  0  0
  137.7959  149.5250  143.3778 C   0  0  0  0  0  0  0  0  0  0  0  0
  135.3283  150.7640  145.8007 C   0  0  0  0  0  0  0  0  0  0  0  0
  1  2  1  0
  2  3  2  0
  3  4  1  0
  3  5  1  0
  1  6  2  0
  5  7  1  0
  5  8  2  0
  8  9  1  0
  4 10  1  0
  4 11  2  0
  6 11  1  0
  8 12  1  0
 10 12  2  0
M  END
$$$$

     RDKit          3D

 12 13  0  0  0  0  0  0  0  0999 V2000
  139.3443  149.9938  140.5872 C   0  0  0  0  0  0  0  0  0  0  0  0
  138.9756  149.9372  139.3587 C   0  0  0  0  0  0  0  0  0  0  0  0
  138.5880  150.0764  141.6359 C   0  0  0  0  0  0  0  0  0  0  0  0
  137.2185  149.9023  141.8334 C   0  0  0  0  0  0  0  0  0  0  0  0
  136.5002  149.8297  140.5761 C   0  0  0  0  0  0  0  0  0  0  0  0
  139.1863  150.3537  143.1491 C   0  0  0  0  0  0  0  0  0  0  0  0
  138.2367  150.9497  144.0909 C   0  0  0  0  0  0  0  0  0  0  0  0
  136.9516  150.8955  143.8600 C   0  0  0  0  0  0  0  0  0  0  0  0
  136.3107  150.3031  142.8239 C   0  0  0  0  0  0  0  0  0  0  0  0
  137.3171  149.6931  139.2768 C   0  0  0  0  0  0  0  0  0  0  0  0
  136.1867  151.4730  145.0008 C   0  0  0  0  0  0  0  0  0  0  0  0
  135.2712  152.5489  144.7909 C   0  0  0  0  0  0  0  0  0  0  0  0
  1  2  2  0
  1  3  1  0
  3  4  1  0
  4  5  2  0
  3  6  1  0
  6  7  2  0
  7  8  1  0
  4  9  1  0
  8  9  1  0
  2 10  1  0
  5 10  1  0
  8 11  1  0
 11 12  1  0
M  END
$$$$

     RDKit          3D

 12 12  0  0  0  0  0  0  0  0999 V2000
  140.3043  150.2153  139.4787 Cl  0  0  0  0  0  0  0  0  0  0  0  0
  138.6777  150.1901  140.5340 C   0  0  0  0  0  0  0  0  0  0  0  0
  137.6379  149.3864  140.0971 C   0  0  0  0  0  0  0  0  0  0  0  0
  139.2420  150.7164  141.5780 C   0  0  0  0  0  0  0  0  0  0  0  0
  138.3728  151.0639  142.3847 C   0  0  0  0  0  0  0  0  0  0  0  0
  138.6199  151.8236  143.7078 C   0  0  0  0  0  0  0  0  0  0  0  0
  137.1682  150.7329  142.8127 C   0  0  0  0  0  0  0  0  0  0  0  0
  136.2848  150.8653  143.5649 C   0  0  0  0  0  0  0  0  0  0  0  0
  136.6310  151.5839  144.5527 C   0  0  0  0  0  0  0  0  0  0  0  0
  135.6784  151.8672  145.7757 C   0  0  0  0  0  0  0  0  0  0  0  0
  135.5193  153.2530  146.1077 C   0  0  0  0  0  0  0  0  0  0  0  0
  137.9513  152.1474  144.6872 C   0  0  0  0  0  0  0  0  0  0  0  0
  1  2  1  0
  2  3  1  0
  2  4  2  3
  4  5  1  0
  5  6  1  0
  5  7  2  0
  7  8  1  0
  8  9  2  0
  9 10  1  0
 10 11  1  0
  6 12  2  0
  9 12  1  0
M  END
$$$$

     RDKit          3D

 12 13  0  0  0  0  0  0  0  0999 V2000
  139.2617  151.0924  142.4042 C   0  0  0  0  0  0  0  0  0  0  0  0
  138.8616  152.1308  142.9030 C   0  0  0  0  0  0  0  0  0  0  0  0
  137.7833  151.8925  143.8931 C   0  0  0  0  0  0  0  0  0  0  0  0
  137.3594  150.5408  144.0624 C   0  0  0  0  0  0  0  0  0  0  0  0
  136.3237  150.4660  145.1229 C   0  0  0  0  0  0  0  0  0  0  0  0
  139.2662  149.7548  142.8052 C   0  0  0  0  0  0  0  0  0  0  0  0
  137.9821  149.5363  143.6363 C   0  0  0  0  0  0  0  0  0  0  0  0
  135.7431  151.6428  145.3945 C   0  0  0  0  0  0  0  0  0  0  0  0
  137.1974  152.9082  144.6118 C   0  0  0  0  0  0  0  0  0  0  0  0
  136.1609  152.8911  145.3419 C   0  0  0  0  0  0  0  0  0  0  0  0
  140.0489  151.3401  140.9621 C   0  0  0  0  0  0  0  0  0  0  0  0
  135.7464  153.7308  145.8834 O   0  0  0  0  0  0  0  0  0  0  0  0
  1  2  1  0
  2  3  2  0
  3  4  1  0
  4  5  2  0
  1  6  1  0
  4  7  1  0
  6  7  2  0
  5  8  1  0
  3  9  1  0
  8 10  1  0
  9 10  1  0
  1 11  1  0
 10 12  2  0
M  END
$$$$

     RDKit          3D

 12 12  0  0  0  0  0  0  0  0999 V2000
  139.3443  149.9938  140.5872 C   0  0  0  0  0  0  0  0  0  0  0  0
  138.9756  149.9372  139.3587 C   0  0  0  0  0  0  0  0  0  0  0  0
  138.5880  150.0764  141.6359 C   0  0  0  0  0  0  0  0  0  0  0  0
  137.6059  149.8647  139.0257 C   0  0  0  0  0  0  0  0  0  0  0  0
  137.1676  149.4968  137.7630 O   0  0  0  0  0  0  0  0  0  0  0  0
  137.1253  149.8682  141.4740 C   0  0  0  0  0  0  0  0  0  0  0  0
  136.2346  150.0065  142.5782 C   0  0  0  0  0  0  0  0  0  0  0  0
  135.9394  150.7328  143.3406 C   0  0  0  0  0  0  0  0  0  0  0  0
  136.6131  149.7365  140.0840 C   0  0  0  0  0  0  0  0  0  0  0  0
  135.5751  150.5928  144.7658 C   0  0  0  0  0  0  0  0  0  0  0  0
  134.9272  151.6602  145.5336 C   0  0  0  0  0  0  0  0  0  0  0  0
  135.6393  152.3430  146.5757 C   0  0  0  0  0  0  0  0  0  0  0  0
  1  2  2  0
  1  3  1  0
  2  4  1  0
  4  5  1  0
  3  6  2  0
  6  7  1  0
  7  8  2  3
  4  9  2  0
  6  9  1  0
  8 10  1  0
 10 11  1  0
 11 12  1  0
M  END
$$$$

     RDKit          3D

 12 13  0  0  0  0  0  0  0  0999 V2000
  139.2617  151.0924  142.4042 C   0  0  0  0  0  0  0  0  0  0  0  0
  138.8616  152.1308  142.9030 C   0  0  0  0  0  0  0  0  0  0  0  0
  137.7833  151.8925  143.8931 C   0  0  0  0  0  0  0  0  0  0  0  0
  137.3594  150.5408  144.0624 C   0  0  0  0  0  0  0  0  0  0  0  0
  136.3237  150.4660  145.1229 C   0  0  0  0  0  0  0  0  0  0  0  0
  139.2662  149.7548  142.8052 C   0  0  0  0  0  0  0  0  0  0  0  0
  137.9821  149.5363  143.6363 C   0  0  0  0  0  0  0  0  0  0  0  0
  135.7431  151.6428  145.3945 C   0  0  0  0  0  0  0  0  0  0  0  0
  136.9313  152.8329  144.5592 C   0  0  0  0  0  0  0  0  0  0  0  0
  136.0398  152.8058  145.2853 C   0  0  0  0  0  0  0  0  0  0  0  0
  135.3446  154.0566  145.8365 C   0  0  0  0  0  0  0  0  0  0  0  0
  140.0704  151.3691  140.9921 C   0  0  0  0  0  0  0  0  0  0  0  0
  1  2  1  0
  2  3  2  0
  3  4  1  0
  4  5  2  0
  1  6  1  0
  4  7  1  0
  6  7  2  0
  5  8  1  0
  3  9  1  0
  8 10  2  0
  9 10  1  0
 10 11  1  0
  1 12  1  0
M  END
$$$$

     RDKit          3D

 12 12  0  0  0  0  0  0  0  0999 V2000
  138.9700  151.3142  142.5680 C   0  0  0  0  0  0  0  0  0  0  0  0
  138.6028  152.0888  143.2649 C   0  0  0  0  0  0  0  0  0  0  0  0
  137.4885  151.7627  144.1910 C   0  0  0  0  0  0  0  0  0  0  0  0
  137.1685  150.4112  144.2718 C   0  0  0  0  0  0  0  0  0  0  0  0
  136.7824  152.6364  145.0888 C   0  0  0  0  0  0  0  0  0  0  0  0
  138.5870  149.8397  142.4014 C   0  0  0  0  0  0  0  0  0  0  0  0
  139.0806  148.9858  141.5391 C   0  0  0  0  0  0  0  0  0  0  0  0
  139.3317  149.6321  140.2633 C   0  0  0  0  0  0  0  0  0  0  0  0
  137.5925  149.4528  143.3882 N   0  0  0  0  0  0  0  0  0  0  0  0
  139.8314  149.1727  139.2237 O   0  0  0  0  0  0  0  0  0  0  0  0
  135.4960  152.3849  145.5788 C   0  0  0  0  0  0  0  0  0  0  0  0
  138.9505  150.9349  140.2402 O   0  0  0  0  0  0  0  0  0  0  0  0
  1  2  1  0
  2  3  2  0
  3  4  1  0
  3  5  1  0
  1  6  2  0
  6  7  1  0
  7  8  1  0
  4  9  2  0
  6  9  1  0
  8 10  1  0
  5 11  1  0
  8 12  2  0
M  END
$$$$

     RDKit          3D

 12 13  0  0  0  0  0  0  0  0999 V2000
  139.3952  150.7507  142.0137 C   0  0  0  0  0  0  0  0  0  0  0  0
  139.0644  150.4897  140.7536 C   0  0  0  0  0  0  0  0  0  0  0  0
  138.4483  150.6369  143.0431 C   0  0  0  0  0  0  0  0  0  0  0  0
  137.8331  149.9861  140.4382 C   0  0  0  0  0  0  0  0  0  0  0  0
  136.8167  149.7865  141.4629 C   0  0  0  0  0  0  0  0  0  0  0  0
  138.7939  151.0553  144.4375 C   0  0  0  0  0  0  0  0  0  0  0  0
  137.6209  151.6480  145.1222 C   0  0  0  0  0  0  0  0  0  0  0  0
  137.0425  150.3300  142.7065 C   0  0  0  0  0  0  0  0  0  0  0  0
  136.5213  151.4561  145.4384 C   0  0  0  0  0  0  0  0  0  0  0  0
  135.8378  150.3056  145.0975 C   0  0  0  0  0  0  0  0  0  0  0  0
  135.9550  150.2121  143.7712 C   0  0  0  0  0  0  0  0  0  0  0  0
  140.0473  150.6048  139.7056 C   0  0  0  0  0  0  0  0  0  0  0  0
  1  2  2  0
  1  3  1  0
  2  4  1  0
  4  5  2  0
  3  6  1  0
  6  7  2  0
  3  8  2  0
  5  8  1  0
  7  9  1  0
  9 10  2  0
  8 11  1  0
 10 11  1  0
  2 12  1  0
M  END
$$$$

     RDKit          3D

 12 13  0  0  0  0  0  0  0  0999 V2000
  138.9700  151.3142  142.5680 C   0  0  0  0  0  0  0  0  0  0  0  0
  138.6028  152.0888  143.2649 C   0  0  0  0  0  0  0  0  0  0  0  0
  137.6613  151.8314  144.0472 C   0  0  0  0  0  0  0  0  0  0  0  0
  136.5817  152.7482  144.5731 C   0  0  0  0  0  0  0  0  0  0  0  0
  135.5891  152.5118  145.5181 C   0  0  0  0  0  0  0  0  0  0  0  0
  135.6197  151.0419  145.8143 C   0  0  0  0  0  0  0  0  0  0  0  0
  139.9622  151.4785  141.3913 C   0  0  0  0  0  0  0  0  0  0  0  0
  137.2345  150.4487  144.6263 C   0  0  0  0  0  0  0  0  0  0  0  0
  138.2721  149.5562  144.1273 C   0  0  0  0  0  0  0  0  0  0  0  0
  136.4499  150.0637  145.5426 C   0  0  0  0  0  0  0  0  0  0  0  0
  139.6768  150.7517  140.2408 C   0  0  0  0  0  0  0  0  0  0  0  0
  138.9969  149.8151  142.9800 C   0  0  0  0  0  0  0  0  0  0  0  0
  1  2  2  0
  2  3  1  0
  3  4  1  0
  4  5  2  0
  5  6  1  0
  1  7  1  0
  3  8  2  0
  8  9  1  0
  6 10  2  0
  8 10  1  0
  7 11  1  0
  1 12  1  0
  9 12  2  0
M  END
$$$$

     RDKit          3D

 12 13  0  0  0  0  0  0  0  0999 V2000
  139.2617  151.0924  142.4042 C   0  0  0  0  0  0  0  0  0  0  0  0
  138.8616  152.1308  142.9030 C   0  0  0  0  0  0  0  0  0  0  0  0
  137.7833  151.8925  143.8931 C   0  0  0  0  0  0  0  0  0  0  0  0
  137.3594  150.5408  144.0624 C   0  0  0  0  0  0  0  0  0  0  0  0
  136.3237  150.4660  145.1229 C   0  0  0  0  0  0  0  0  0  0  0  0
  139.2662  149.7548  142.8052 C   0  0  0  0  0  0  0  0  0  0  0  0
  137.9821  149.5363  143.6363 C   0  0  0  0  0  0  0  0  0  0  0  0
  135.7431  151.6428  145.3945 C   0  0  0  0  0  0  0  0  0  0  0  0
  135.0389  151.9320  146.5128 C   0  0  0  0  0  0  0  0  0  0  0  0
  140.0744  151.3824  140.9732 C   0  0  0  0  0  0  0  0  0  0  0  0
  135.8134  152.7016  144.3723 C   0  0  0  0  0  0  0  0  0  0  0  0
  137.2330  152.9084  144.1440 C   0  0  0  0  0  0  0  0  0  0  0  0
  1  2  1  0
  2  3  2  0
  3  4  1  0
  4  5  2  0
  1  6  1  0
  4  7  1  0
  6  7  2  0
  5  8  1  0
  8  9  1  0
  1 10  1  0
  8 11  2  0
  3 12  1  0
 11 12  1  0
M  END
$$$$

     RDKit          3D

 12 13  0  0  0  0  0  0  0  0999 V2000
  138.9700  151.3142  142.5680 C   0  0  0  0  0  0  0  0  0  0  0  0
  138.6028  152.0888  143.2649 C   0  0  0  0  0  0  0  0  0  0  0  0
  137.4885  151.7627  144.1910 C   0  0  0  0  0  0  0  0  0  0  0  0
  139.9946  151.3890  141.4262 C   0  0  0  0  0  0  0  0  0  0  0  0
  139.7086  150.7368  140.2224 C   0  0  0  0  0  0  0  0  0  0  0  0
  137.0854  150.3794  143.9221 C   0  0  0  0  0  0  0  0  0  0  0  0
  138.4493  149.8970  142.0941 C   0  0  0  0  0  0  0  0  0  0  0  0
  138.9118  149.6693  140.3064 C   0  0  0  0  0  0  0  0  0  0  0  0
  136.6612  152.3493  145.2085 C   0  0  0  0  0  0  0  0  0  0  0  0
  135.5650  151.9001  145.5493 C   0  0  0  0  0  0  0  0  0  0  0  0
  138.1831  149.2865  141.1414 C   0  0  0  0  0  0  0  0  0  0  0  0
  137.6594  149.5396  143.3862 N   0  0  0  0  0  0  0  0  0  0  0  0
  1  2  1  0
  2  3  2  0
  1  4  1  0
  4  5  2  0
  3  6  1  0
  1  7  2  0
  5  8  1  0
  3  9  1  0
  9 10  1  0
  7 11  1  0
  8 11  2  0
  6 12  1  0
  7 12  1  0
M  END
$$$$

     RDKit          3D

 12 12  0  0  0  0  0  0  0  0999 V2000
  138.9700  151.3142  142.5680 C   0  0  0  0  0  0  0  0  0  0  0  0
  138.6028  152.0888  143.2649 C   0  0  0  0  0  0  0  0  0  0  0  0
  137.4885  151.7627  144.1910 C   0  0  0  0  0  0  0  0  0  0  0  0
  139.9946  151.3890  141.4262 C   0  0  0  0  0  0  0  0  0  0  0  0
  137.1413  150.3696  144.0327 C   0  0  0  0  0  0  0  0  0  0  0  0
  138.4285  149.9931  142.3915 C   0  0  0  0  0  0  0  0  0  0  0  0
  136.7928  152.5100  145.0952 C   0  0  0  0  0  0  0  0  0  0  0  0
  137.0879  153.7796  145.2301 C   0  0  0  0  0  0  0  0  0  0  0  0
  135.6154  152.0446  145.6903 C   0  0  0  0  0  0  0  0  0  0  0  0
  134.7778  152.8278  146.2285 C   0  0  0  0  0  0  0  0  0  0  0  0
  137.5252  149.5116  143.2959 N   0  0  0  0  0  0  0  0  0  0  0  0
  140.1489  150.7741  140.2326 C   0  0  0  0  0  0  0  0  0  0  0  0
  1  2  1  0
  2  3  2  0
  1  4  1  0
  3  5  1  0
  1  6  2  0
  3  7  1  0
  7  8  1  0
  7  9  2  3
  9 10  1  0
  5 11  2  0
  6 11  1  0
  4 12  2  0
M  END
$$$$

     RDKit          3D

 12 13  0  0  0  0  0  0  0  0999 V2000
  138.9700  151.3142  142.5680 C   0  0  0  0  0  0  0  0  0  0  0  0
  138.6028  152.0888  143.2649 C   0  0  0  0  0  0  0  0  0  0  0  0
  137.4885  151.7627  144.1910 C   0  0  0  0  0  0  0  0  0  0  0  0
  139.9946  151.3890  141.4262 C   0  0  0  0  0  0  0  0  0  0  0  0
  137.1413  150.3696  144.0327 C   0  0  0  0  0  0  0  0  0  0  0  0
  139.6220  150.7342  140.2336 C   0  0  0  0  0  0  0  0  0  0  0  0
  138.5574  149.8228  140.4263 C   0  0  0  0  0  0  0  0  0  0  0  0
  136.7997  152.5139  145.1135 C   0  0  0  0  0  0  0  0  0  0  0  0
  138.1226  149.1580  139.1283 C   0  0  0  0  0  0  0  0  0  0  0  0
  137.7674  149.7789  141.6077 C   0  0  0  0  0  0  0  0  0  0  0  0
  138.0417  150.2888  142.7866 C   0  0  0  0  0  0  0  0  0  0  0  0
  135.5605  152.0996  145.6291 C   0  0  0  0  0  0  0  0  0  0  0  0
  1  2  1  0
  2  3  2  0
  1  4  1  0
  3  5  1  0
  4  6  2  0
  6  7  1  0
  3  8  1  0
  7  9  1  0
  7 10  2  0
  1 11  2  0
  5 11  1  0
 10 11  1  0
  8 12  1  0
M  END
$$$$

     RDKit          3D

 12 13  0  0  0  0  0  0  0  0999 V2000
  139.3443  149.9938  140.5872 C   0  0  0  0  0  0  0  0  0  0  0  0
  138.9756  149.9372  139.3587 C   0  0  0  0  0  0  0  0  0  0  0  0
  138.5880  150.0764  141.6359 C   0  0  0  0  0  0  0  0  0  0  0  0
  137.6059  149.8647  139.0257 C   0  0  0  0  0  0  0  0  0  0  0  0
  137.1676  149.4968  137.7630 O   0  0  0  0  0  0  0  0  0  0  0  0
  136.5842  149.6761  139.7231 C   0  0  0  0  0  0  0  0  0  0  0  0
  139.1043  150.3500  143.0327 C   0  0  0  0  0  0  0  0  0  0  0  0
  138.4320  151.2968  143.7316 C   0  0  0  0  0  0  0  0  0  0  0  0
  137.3538  151.6103  143.5439 C   0  0  0  0  0  0  0  0  0  0  0  0
  135.2679  149.5872  139.3243 O   0  0  0  0  0  0  0  0  0  0  0  0
  136.6018  151.1809  142.3470 C   0  0  0  0  0  0  0  0  0  0  0  0
  137.1073  150.2462  141.3611 C   0  0  0  0  0  0  0  0  0  0  0  0
  1  2  2  0
  1  3  1  0
  2  4  1  0
  4  5  1  0
  4  6  2  0
  3  7  1  0
  7  8  2  0
  8  9  1  0
  6 10  1  0
  9 11  2  0
  3 12  2  0
  6 12  1  0
 11 12  1  0
M  END
$$$$

     RDKit          3D

 12 13  0  0  0  0  0  0  0  0999 V2000
  139.2617  151.0924  142.4042 C   0  0  0  0  0  0  0  0  0  0  0  0
  138.8616  152.1308  142.9030 C   0  0  0  0  0  0  0  0  0  0  0  0
  137.9129  151.7989  143.7815 C   0  0  0  0  0  0  0  0  0  0  0  0
  138.8296  150.4005  141.6037 C   0  0  0  0  0  0  0  0  0  0  0  0
  137.6678  149.9540  141.7617 C   0  0  0  0  0  0  0  0  0  0  0  0
  136.7250  151.0131  143.4744 C   0  0  0  0  0  0  0  0  0  0  0  0
  136.5867  150.2886  142.5423 C   0  0  0  0  0  0  0  0  0  0  0  0
  135.8176  151.1668  144.5895 C   0  0  0  0  0  0  0  0  0  0  0  0
  135.9330  152.1142  145.5247 C   0  0  0  0  0  0  0  0  0  0  0  0
  137.5183  152.6465  145.0894 C   0  0  0  0  0  0  0  0  0  0  0  0
  139.5682  149.6361  140.4714 C   0  0  0  0  0  0  0  0  0  0  0  0
  140.6768  150.0685  140.0007 C   0  0  0  0  0  0  0  0  0  0  0  0
  1  2  1  0
  2  3  2  0
  1  4  2  0
  4  5  1  0
  3  6  1  0
  5  7  1  0
  6  7  1  0
  6  8  2  0
  8  9  1  0
  3 10  1  0
  9 10  2  0
  4 11  1  0
 11 12  2  0
M  END
$$$$

     RDKit          3D

 12 12  0  0  0  0  0  0  0  0999 V2000
  138.9700  151.3142  142.5680 C   0  0  0  0  0  0  0  0  0  0  0  0
  138.6028  152.0888  143.2649 C   0  0  0  0  0  0  0  0  0  0  0  0
  137.6613  151.8314  144.0472 C   0  0  0  0  0  0  0  0  0  0  0  0
  136.5817  152.7482  144.5731 C   0  0  0  0  0  0  0  0  0  0  0  0
  135.5891  152.5118  145.5181 C   0  0  0  0  0  0  0  0  0  0  0  0
  135.6197  151.0419  145.8143 C   0  0  0  0  0  0  0  0  0  0  0  0
  139.9622  151.4785  141.3913 C   0  0  0  0  0  0  0  0  0  0  0  0
  137.2345  150.4487  144.6263 C   0  0  0  0  0  0  0  0  0  0  0  0
  138.2721  149.5562  144.1273 O   0  0  0  0  0  0  0  0  0  0  0  0
  136.3848  150.0338  145.4498 C   0  0  0  0  0  0  0  0  0  0  0  0
  139.6906  150.7421  140.2072 C   0  0  0  0  0  0  0  0  0  0  0  0
  140.6149  150.6402  139.1802 C   0  0  0  0  0  0  0  0  0  0  0  0
  1  2  2  3
  2  3  1  0
  3  4  1  0
  4  5  2  0
  5  6  1  0
  1  7  1  0
  3  8  2  0
  8  9  1  0
  6 10  2  0
  8 10  1  0
  7 11  2  3
 11 12  1  0
M  END
$$$$

     RDKit          3D

 12 13  0  0  0  0  0  0  0  0999 V2000
  140.3043  150.2153  139.4787 Cl  0  0  0  0  0  0  0  0  0  0  0  0
  138.6777  150.1901  140.5340 C   0  0  0  0  0  0  0  0  0  0  0  0
  137.6379  149.3864  140.0971 C   0  0  0  0  0  0  0  0  0  0  0  0
  138.7740  150.9330  141.6513 C   0  0  0  0  0  0  0  0  0  0  0  0
  138.1503  150.9121  142.4451 C   0  0  0  0  0  0  0  0  0  0  0  0
  138.2393  151.5036  143.8900 C   0  0  0  0  0  0  0  0  0  0  0  0
  136.9238  150.2035  142.6659 C   0  0  0  0  0  0  0  0  0  0  0  0
  136.0630  150.3375  143.8286 C   0  0  0  0  0  0  0  0  0  0  0  0
  137.6037  148.9501  138.8616 C   0  0  0  0  0  0  0  0  0  0  0  0
  136.5127  149.5351  141.0184 C   0  0  0  0  0  0  0  0  0  0  0  0
  137.2355  151.2537  144.7845 C   0  0  0  0  0  0  0  0  0  0  0  0
  136.3821  148.8182  138.2019 O   0  0  0  0  0  0  0  0  0  0  0  0
  1  2  1  0
  2  3  1  0
  2  4  2  0
  4  5  1  0
  5  6  1  0
  5  7  2  0
  7  8  1  0
  3  9  2  3
  3 10  1  0
  7 10  1  0
  6 11  2  0
  8 11  1  0
  9 12  1  0
M  END
$$$$

     RDKit          3D

 12 12  0  0  0  0  0  0  0  0999 V2000
  139.3952  150.7507  142.0137 C   0  0  0  0  0  0  0  0  0  0  0  0
  139.0644  150.4897  140.7536 C   0  0  0  0  0  0  0  0  0  0  0  0
  138.4483  150.6369  143.0431 C   0  0  0  0  0  0  0  0  0  0  0  0
  137.8331  149.9861  140.4382 C   0  0  0  0  0  0  0  0  0  0  0  0
  136.8167  149.7865  141.4629 C   0  0  0  0  0  0  0  0  0  0  0  0
  138.7939  151.0553  144.4375 C   0  0  0  0  0  0  0  0  0  0  0  0
  137.6209  151.6480  145.1222 C   0  0  0  0  0  0  0  0  0  0  0  0
  137.0425  150.3300  142.7065 C   0  0  0  0  0  0  0  0  0  0  0  0
  136.5213  151.4561  145.4384 C   0  0  0  0  0  0  0  0  0  0  0  0
  135.8378  150.3056  145.0975 C   0  0  0  0  0  0  0  0  0  0  0  0
  135.6126  152.4501  146.1015 C   0  0  0  0  0  0  0  0  0  0  0  0
  140.2119  150.7162  139.6382 C   0  0  0  0  0  0  0  0  0  0  0  0
  1  2  2  0
  1  3  1  0
  2  4  1  0
  4  5  2  0
  3  6  1  0
  6  7  2  3
  3  8  2  0
  5  8  1  0
  7  9  1  0
  9 10  2  0
  9 11  1  0
  2 12  1  0
M  END
$$$$

     RDKit          3D

 12 12  0  0  0  0  0  0  0  0999 V2000
  138.7241  151.5757  143.3192 C   0  0  0  0  0  0  0  0  0  0  0  0
  137.9190  152.3259  143.7537 C   0  0  0  0  0  0  0  0  0  0  0  0
  136.7519  151.8077  144.4387 C   0  0  0  0  0  0  0  0  0  0  0  0
  138.5728  150.7614  142.3615 C   0  0  0  0  0  0  0  0  0  0  0  0
  136.5049  150.5076  144.1699 C   0  0  0  0  0  0  0  0  0  0  0  0
  139.5488  150.5139  141.3215 C   0  0  0  0  0  0  0  0  0  0  0  0
  137.3929  149.9380  142.5382 C   0  0  0  0  0  0  0  0  0  0  0  0
  135.8263  152.3549  145.3436 C   0  0  0  0  0  0  0  0  0  0  0  0
  139.2866  149.8943  140.1301 C   0  0  0  0  0  0  0  0  0  0  0  0
  134.9128  151.7283  145.9967 C   0  0  0  0  0  0  0  0  0  0  0  0
  135.8575  153.7608  145.4969 C   0  0  0  0  0  0  0  0  0  0  0  0
  140.1547  150.0588  138.9925 C   0  0  0  0  0  0  0  0  0  0  0  0
  1  2  1  0
  2  3  2  0
  1  4  2  0
  3  5  1  0
  4  6  1  0
  4  7  1  0
  5  7  2  0
  3  8  1  0
  6  9  1  0
  8 10  1  0
  8 11  2  0
  9 12  1  0
M  END
$$$$

     RDKit          3D

 12 13  0  0  0  0  0  0  0  0999 V2000
  138.9700  151.3142  142.5680 C   0  0  0  0  0  0  0  0  0  0  0  0
  138.6028  152.0888  143.2649 C   0  0  0  0  0  0  0  0  0  0  0  0
  139.7534  151.4391  141.3513 C   0  0  0  0  0  0  0  0  0  0  0  0
  137.5434  151.8486  144.3752 C   0  0  0  0  0  0  0  0  0  0  0  0
  137.4057  150.5855  144.6897 C   0  0  0  0  0  0  0  0  0  0  0  0
  139.5846  150.4504  140.3545 C   0  0  0  0  0  0  0  0  0  0  0  0
  138.6911  149.4437  140.7439 C   0  0  0  0  0  0  0  0  0  0  0  0
  137.7600  149.6564  141.7147 C   0  0  0  0  0  0  0  0  0  0  0  0
  140.3875  150.5132  139.1360 C   0  0  0  0  0  0  0  0  0  0  0  0
  138.0573  150.4024  142.7870 C   0  0  0  0  0  0  0  0  0  0  0  0
  136.8643  152.8082  144.9113 C   0  0  0  0  0  0  0  0  0  0  0  0
  137.5856  149.9444  143.7359 O   0  0  0  0  0  0  0  0  0  0  0  0
  1  2  1  0
  1  3  1  0
  2  4  1  0
  4  5  2  0
  3  6  2  0
  6  7  1  0
  7  8  2  0
  6  9  1  0
  1 10  2  0
  8 10  1  0
  4 11  1  0
  5 12  1  0
 10 12  1  0
M  END
$$$$

     RDKit          3D

 12 12  0  0  0  0  0  0  0  0999 V2000
  139.3443  149.9938  140.5872 C   0  0  0  0  0  0  0  0  0  0  0  0
  138.9756  149.9372  139.3587 C   0  0  0  0  0  0  0  0  0  0  0  0
  138.5880  150.0764  141.6359 C   0  0  0  0  0  0  0  0  0  0  0  0
  137.6059  149.8647  139.0257 C   0  0  0  0  0  0  0  0  0  0  0  0
  137.1676  149.4968  137.7630 O   0  0  0  0  0  0  0  0  0  0  0  0
  136.5842  149.6761  139.7231 C   0  0  0  0  0  0  0  0  0  0  0  0
  139.1043  150.3500  143.0327 C   0  0  0  0  0  0  0  0  0  0  0  0
  138.4320  151.2968  143.7316 C   0  0  0  0  0  0  0  0  0  0  0  0
  137.3538  151.6103  143.5439 C   0  0  0  0  0  0  0  0  0  0  0  0
  136.6255  152.4866  144.5286 C   0  0  0  0  0  0  0  0  0  0  0  0
  137.1089  150.1922  141.5542 C   0  0  0  0  0  0  0  0  0  0  0  0
  136.9744  153.7882  144.7998 C   0  0  0  0  0  0  0  0  0  0  0  0
  1  2  2  0
  1  3  1  0
  2  4  1  0
  4  5  1  0
  4  6  2  0
  3  7  1  0
  7  8  2  3
  8  9  1  0
  9 10  1  0
  3 11  2  0
  6 11  1  0
 10 12  2  0
M  END
$$$$

     RDKit          3D

 12 13  0  0  0  0  0  0  0  0999 V2000
  140.3043  150.2153  139.4787 Cl  0  0  0  0  0  0  0  0  0  0  0  0
  138.6777  150.1901  140.5340 C   0  0  0  0  0  0  0  0  0  0  0  0
  137.6379  149.3864  140.0971 C   0  0  0  0  0  0  0  0  0  0  0  0
  138.7740  150.9330  141.6513 C   0  0  0  0  0  0  0  0  0  0  0  0
  138.1503  150.9121  142.4451 C   0  0  0  0  0  0  0  0  0  0  0  0
  138.2393  151.5036  143.8900 C   0  0  0  0  0  0  0  0  0  0  0  0
  136.9238  150.2035  142.6659 C   0  0  0  0  0  0  0  0  0  0  0  0
  136.0630  150.3375  143.8286 C   0  0  0  0  0  0  0  0  0  0  0  0
  137.6037  148.9501  138.8616 C   0  0  0  0  0  0  0  0  0  0  0  0
  136.5105  149.1878  140.6212 C   0  0  0  0  0  0  0  0  0  0  0  0
  137.1882  151.4651  144.6423 C   0  0  0  0  0  0  0  0  0  0  0  0
  136.0433  149.5581  141.6846 C   0  0  0  0  0  0  0  0  0  0  0  0
  1  2  1  0
  2  3  1  0
  2  4  2  0
  4  5  1  0
  5  6  1  0
  5  7  2  0
  7  8  1  0
  3  9  1  0
  3 10  1  0
  6 11  2  0
  8 11  1  0
  7 12  1  0
 10 12  2  0
M  END
$$$$

     RDKit          3D

 12 13  0  0  0  0  0  0  0  0999 V2000
  139.5351  150.8912  142.2316 C   0  0  0  0  0  0  0  0  0  0  0  0
  138.9995  151.9980  142.6388 C   0  0  0  0  0  0  0  0  0  0  0  0
  138.9552  149.6528  142.4249 C   0  0  0  0  0  0  0  0  0  0  0  0
  137.7531  151.8934  143.4318 C   0  0  0  0  0  0  0  0  0  0  0  0
  137.3026  153.0162  144.1111 C   0  0  0  0  0  0  0  0  0  0  0  0
  136.3824  152.7492  145.0837 C   0  0  0  0  0  0  0  0  0  0  0  0
  136.0524  151.4309  145.3461 C   0  0  0  0  0  0  0  0  0  0  0  0
  137.3616  150.5132  143.8380 C   0  0  0  0  0  0  0  0  0  0  0  0
  137.9094  149.5251  143.3305 C   0  0  0  0  0  0  0  0  0  0  0  0
  135.7603  153.9170  145.6947 C   0  0  0  0  0  0  0  0  0  0  0  0
  135.1163  151.3872  146.5219 C   0  0  0  0  0  0  0  0  0  0  0  0
  136.3314  150.4196  144.7420 C   0  0  0  0  0  0  0  0  0  0  0  0
  1  2  2  0
  1  3  1  0
  2  4  1  0
  4  5  1  0
  5  6  2  0
  6  7  1  0
  4  8  2  0
  3  9  2  0
  8  9  1  0
  6 10  1  0
  7 11  1  0
  7 12  2  0
  8 12  1  0
M  END
$$$$

     RDKit          3D

 12 12  0  0  0  0  0  0  0  0999 V2000
  139.2617  151.0924  142.4042 C   0  0  0  0  0  0  0  0  0  0  0  0
  138.8616  152.1308  142.9030 C   0  0  0  0  0  0  0  0  0  0  0  0
  137.7833  151.8925  143.8931 C   0  0  0  0  0  0  0  0  0  0  0  0
  137.3594  150.5408  144.0624 C   0  0  0  0  0  0  0  0  0  0  0  0
  136.3237  150.4660  145.1229 C   0  0  0  0  0  0  0  0  0  0  0  0
  139.2662  149.7548  142.8052 C   0  0  0  0  0  0  0  0  0  0  0  0
  138.1543  149.4944  143.5919 C   0  0  0  0  0  0  0  0  0  0  0  0
  140.3111  151.2931  141.2559 C   0  0  0  0  0  0  0  0  0  0  0  0
  135.4495  151.3574  145.3249 C   0  0  0  0  0  0  0  0  0  0  0  0
  140.2667  150.4120  140.1500 C   0  0  0  0  0  0  0  0  0  0  0  0
  134.8484  152.0908  144.4333 O   0  0  0  0  0  0  0  0  0  0  0  0
  135.0068  151.7336  146.6316 O   0  0  0  0  0  0  0  0  0  0  0  0
  1  2  1  0
  2  3  2  0
  3  4  1  0
  4  5  2  3
  1  6  1  0
  4  7  1  0
  6  7  2  0
  1  8  2  3
  5  9  1  0
  8 10  1  0
  9 11  2  0
  9 12  1  0
M  END
$$$$

     RDKit          3D

 12 13  0  0  0  0  0  0  0  0999 V2000
  138.9700  151.3142  142.5680 C   0  0  0  0  0  0  0  0  0  0  0  0
  138.6028  152.0888  143.2649 C   0  0  0  0  0  0  0  0  0  0  0  0
  139.7534  151.4391  141.3513 C   0  0  0  0  0  0  0  0  0  0  0  0
  137.5434  151.8486  144.3752 C   0  0  0  0  0  0  0  0  0  0  0  0
  137.4057  150.5855  144.6897 C   0  0  0  0  0  0  0  0  0  0  0  0
  139.5846  150.4504  140.3545 C   0  0  0  0  0  0  0  0  0  0  0  0
  138.6911  149.4437  140.7439 C   0  0  0  0  0  0  0  0  0  0  0  0
  137.7600  149.6564  141.7147 C   0  0  0  0  0  0  0  0  0  0  0  0
  140.3875  150.5132  139.1360 C   0  0  0  0  0  0  0  0  0  0  0  0
  138.0573  150.4024  142.7870 C   0  0  0  0  0  0  0  0  0  0  0  0
  136.8643  152.8082  144.9113 C   0  0  0  0  0  0  0  0  0  0  0  0
  137.5370  149.7093  143.8147 N   0  0  0  0  0  0  0  0  0  0  0  0
  1  2  1  0
  1  3  1  0
  2  4  1  0
  4  5  2  0
  3  6  2  0
  6  7  1  0
  7  8  2  0
  6  9  1  0
  1 10  2  0
  8 10  1  0
  4 11  1  0
  5 12  1  0
 10 12  1  0
M  END
$$$$

     RDKit          3D

 12 13  0  0  0  0  0  0  0  0999 V2000
  138.7088  151.1469  142.6270 C   0  0  0  0  0  0  0  0  0  0  0  0
  138.5262  151.9374  143.5115 C   0  0  0  0  0  0  0  0  0  0  0  0
  137.3824  151.6595  144.3968 C   0  0  0  0  0  0  0  0  0  0  0  0
  139.6611  150.9772  141.6901 C   0  0  0  0  0  0  0  0  0  0  0  0
  136.7221  150.4806  143.9608 C   0  0  0  0  0  0  0  0  0  0  0  0
  139.3791  150.7043  140.2857 C   0  0  0  0  0  0  0  0  0  0  0  0
  138.0794  150.1982  140.1257 C   0  0  0  0  0  0  0  0  0  0  0  0
  137.7206  149.7514  138.7664 C   0  0  0  0  0  0  0  0  0  0  0  0
  137.1659  150.0380  141.2095 C   0  0  0  0  0  0  0  0  0  0  0  0
  135.8987  149.4764  140.9824 C   0  0  0  0  0  0  0  0  0  0  0  0
  137.5050  150.3695  142.5470 C   0  0  0  0  0  0  0  0  0  0  0  0
  136.9484  152.4744  145.5566 C   0  0  0  0  0  0  0  0  0  0  0  0
  1  2  1  0
  2  3  2  0
  1  4  1  0
  3  5  1  0
  4  6  2  0
  6  7  1  0
  7  8  1  0
  7  9  2  0
  9 10  1  0
  1 11  2  0
  5 11  1  0
  9 11  1  0
  3 12  1  0
M  END
$$$$

     RDKit          3D

 12 12  0  0  0  0  0  0  0  0999 V2000
  139.3443  149.9938  140.5872 C   0  0  0  0  0  0  0  0  0  0  0  0
  138.9756  149.9372  139.3587 C   0  0  0  0  0  0  0  0  0  0  0  0
  138.5880  150.0764  141.6359 C   0  0  0  0  0  0  0  0  0  0  0  0
  137.6059  149.8647  139.0257 C   0  0  0  0  0  0  0  0  0  0  0  0
  136.6735  149.8721  140.1553 C   0  0  0  0  0  0  0  0  0  0  0  0
  139.1026  150.2605  143.0402 C   0  0  0  0  0  0  0  0  0  0  0  0
  138.4732  151.2252  143.7767 C   0  0  0  0  0  0  0  0  0  0  0  0
  137.2533  151.6738  143.3905 C   0  0  0  0  0  0  0  0  0  0  0  0
  137.1109  150.1617  141.4461 C   0  0  0  0  0  0  0  0  0  0  0  0
  136.4522  152.4373  144.3822 C   0  0  0  0  0  0  0  0  0  0  0  0
  135.1519  152.0937  144.6639 C   0  0  0  0  0  0  0  0  0  0  0  0
  134.5443  152.5782  145.9083 C   0  0  0  0  0  0  0  0  0  0  0  0
  1  2  2  0
  1  3  1  0
  2  4  1  0
  4  5  2  0
  3  6  1  0
  6  7  2  3
  7  8  1  0
  3  9  2  0
  5  9  1  0
  8 10  2  3
 10 11  1  0
 11 12  1  0
M  END
$$$$

     RDKit          3D

 12 13  0  0  0  0  0  0  0  0999 V2000
  139.2617  151.0924  142.4042 C   0  0  0  0  0  0  0  0  0  0  0  0
  138.8616  152.1308  142.9030 C   0  0  0  0  0  0  0  0  0  0  0  0
  137.9129  151.7989  143.7815 C   0  0  0  0  0  0  0  0  0  0  0  0
  138.8296  150.4005  141.6037 C   0  0  0  0  0  0  0  0  0  0  0  0
  137.6678  149.9540  141.7617 C   0  0  0  0  0  0  0  0  0  0  0  0
  136.8343  150.9146  143.3909 C   0  0  0  0  0  0  0  0  0  0  0  0
  136.6249  150.1718  142.5687 C   0  0  0  0  0  0  0  0  0  0  0  0
  135.8757  151.0648  144.6092 C   0  0  0  0  0  0  0  0  0  0  0  0
  135.8784  152.1048  145.4435 C   0  0  0  0  0  0  0  0  0  0  0  0
  136.9817  153.0219  145.3413 C   0  0  0  0  0  0  0  0  0  0  0  0
  138.0933  152.8485  144.7403 C   0  0  0  0  0  0  0  0  0  0  0  0
  134.8277  152.1897  146.3576 C   0  0  0  0  0  0  0  0  0  0  0  0
  1  2  1  0
  2  3  2  0
  1  4  2  0
  4  5  1  0
  3  6  1  0
  5  7  1  0
  6  7  1  0
  6  8  2  0
  8  9  1  0
  9 10  1  0
  3 11  1  0
 10 11  2  0
  9 12  1  0
M  END
$$$$

     RDKit          3D

 12 12  0  0  0  0  0  0  0  0999 V2000
  138.7088  151.1469  142.6270 C   0  0  0  0  0  0  0  0  0  0  0  0
  138.5262  151.9374  143.5115 C   0  0  0  0  0  0  0  0  0  0  0  0
  137.3922  151.8105  144.0744 C   0  0  0  0  0  0  0  0  0  0  0  0
  136.5951  150.6201  143.9738 C   0  0  0  0  0  0  0  0  0  0  0  0
  137.9799  149.9622  142.2560 C   0  0  0  0  0  0  0  0  0  0  0  0
  136.5087  152.7504  145.0878 C   0  0  0  0  0  0  0  0  0  0  0  0
  135.4840  150.3765  144.8383 C   0  0  0  0  0  0  0  0  0  0  0  0
  136.9234  149.7209  142.9997 C   0  0  0  0  0  0  0  0  0  0  0  0
  135.1831  151.6020  145.5165 C   0  0  0  0  0  0  0  0  0  0  0  0
  135.7814  152.6019  145.6598 C   0  0  0  0  0  0  0  0  0  0  0  0
  140.0375  151.3191  141.7088 C   0  0  0  0  0  0  0  0  0  0  0  0
  136.6008  153.4220  145.1936 N   0  0  0  0  0  0  0  0  0  0  0  0
  1  2  1  0
  2  3  2  0
  3  4  1  0
  1  5  2  0
  3  6  1  0
  4  7  1  0
  4  8  2  0
  5  8  1  0
  7  9  2  3
  9 10  1  0
  1 11  1  0
 10 12  3  0
M  END
$$$$

     RDKit          3D

 12 13  0  0  0  0  0  0  0  0999 V2000
  138.9700  151.3142  142.5680 C   0  0  0  0  0  0  0  0  0  0  0  0
  138.6028  152.0888  143.2649 C   0  0  0  0  0  0  0  0  0  0  0  0
  139.7534  151.4391  141.3513 C   0  0  0  0  0  0  0  0  0  0  0  0
  137.5434  151.8486  144.3752 C   0  0  0  0  0  0  0  0  0  0  0  0
  137.4057  150.5855  144.6897 C   0  0  0  0  0  0  0  0  0  0  0  0
  139.5846  150.4504  140.3545 C   0  0  0  0  0  0  0  0  0  0  0  0
  138.6911  149.4437  140.7439 C   0  0  0  0  0  0  0  0  0  0  0  0
  137.7600  149.6564  141.7147 C   0  0  0  0  0  0  0  0  0  0  0  0
  140.4215  150.4230  139.2710 C   0  0  0  0  0  0  0  0  0  0  0  0
  138.0370  150.2468  142.5327 C   0  0  0  0  0  0  0  0  0  0  0  0
  136.9151  150.2393  146.0312 C   0  0  0  0  0  0  0  0  0  0  0  0
  137.4744  149.7327  143.6456 N   0  0  0  0  0  0  0  0  0  0  0  0
  1  2  1  0
  1  3  1  0
  2  4  1  0
  4  5  2  0
  3  6  2  0
  6  7  1  0
  7  8  2  0
  6  9  1  0
  1 10  2  0
  8 10  1  0
  5 11  1  0
  5 12  1  0
 10 12  1  0
M  END
$$$$

     RDKit          3D

 12 13  0  0  0  0  0  0  0  0999 V2000
  138.9700  151.3142  142.5680 C   0  0  0  0  0  0  0  0  0  0  0  0
  138.6028  152.0888  143.2649 C   0  0  0  0  0  0  0  0  0  0  0  0
  137.6281  151.7065  144.0688 C   0  0  0  0  0  0  0  0  0  0  0  0
  140.0307  151.3229  141.4173 C   0  0  0  0  0  0  0  0  0  0  0  0
  138.3103  150.1088  142.4683 C   0  0  0  0  0  0  0  0  0  0  0  0
  137.1492  150.7560  144.0988 C   0  0  0  0  0  0  0  0  0  0  0  0
  137.3028  153.0259  145.0184 C   0  0  0  0  0  0  0  0  0  0  0  0
  137.4615  149.6678  143.3280 C   0  0  0  0  0  0  0  0  0  0  0  0
  139.8766  150.6085  140.2323 C   0  0  0  0  0  0  0  0  0  0  0  0
  138.9692  149.6708  140.0135 C   0  0  0  0  0  0  0  0  0  0  0  0
  138.3771  149.2547  141.1698 N   0  0  0  0  0  0  0  0  0  0  0  0
  138.5084  149.3081  138.7141 C   0  0  0  0  0  0  0  0  0  0  0  0
  1  2  1  0
  2  3  2  0
  1  4  1  0
  1  5  2  0
  3  6  1  0
  3  7  1  0
  5  8  1  0
  6  8  2  0
  4  9  2  0
  9 10  1  0
  5 11  1  0
 10 11  1  0
 10 12  2  0
M  END
$$$$

     RDKit          3D

 13 14  0  0  0  0  0  0  0  0999 V2000
  139.3443  149.9938  140.5872 C   0  0  0  0  0  0  0  0  0  0  0  0
  138.9756  149.9372  139.3587 C   0  0  0  0  0  0  0  0  0  0  0  0
  138.5880  150.0764  141.6359 C   0  0  0  0  0  0  0  0  0  0  0  0
  137.2185  149.9023  141.8334 C   0  0  0  0  0  0  0  0  0  0  0  0
  136.5002  149.8297  140.5761 C   0  0  0  0  0  0  0  0  0  0  0  0
  139.1863  150.3537  143.1491 C   0  0  0  0  0  0  0  0  0  0  0  0
  138.2367  150.9497  144.0909 C   0  0  0  0  0  0  0  0  0  0  0  0
  136.9516  150.8955  143.8600 C   0  0  0  0  0  0  0  0  0  0  0  0
  139.8797  149.9829  138.2590 C   0  0  0  0  0  0  0  0  0  0  0  0
  136.1730  151.3676  145.1023 C   0  0  0  0  0  0  0  0  0  0  0  0
  135.0651  152.2528  144.8493 C   0  0  0  0  0  0  0  0  0  0  0  0
  136.2899  150.2343  142.8339 C   0  0  0  0  0  0  0  0  0  0  0  0
  137.5187  149.7223  139.2825 C   0  0  0  0  0  0  0  0  0  0  0  0
  1  2  2  0
  1  3  1  0
  3  4  1  0
  4  5  2  0
  3  6  1  0
  6  7  2  0
  7  8  1  0
  2  9  1  0
  8 10  1  0
 10 11  1  0
  4 12  1  0
  8 12  1  0
  2 13  1  0
  5 13  1  0
M  END
$$$$

     RDKit          3D

 13 14  0  0  0  0  0  0  0  0999 V2000
  139.2617  151.0924  142.4042 C   0  0  0  0  0  0  0  0  0  0  0  0
  138.8616  152.1308  142.9030 C   0  0  0  0  0  0  0  0  0  0  0  0
  137.7833  151.8925  143.8931 C   0  0  0  0  0  0  0  0  0  0  0  0
  137.3594  150.5408  144.0624 C   0  0  0  0  0  0  0  0  0  0  0  0
  136.3237  150.4660  145.1229 C   0  0  0  0  0  0  0  0  0  0  0  0
  139.2662  149.7548  142.8052 C   0  0  0  0  0  0  0  0  0  0  0  0
  137.9821  149.5363  143.6363 C   0  0  0  0  0  0  0  0  0  0  0  0
  135.7431  151.6428  145.3945 C   0  0  0  0  0  0  0  0  0  0  0  0
  140.2499  151.3279  141.2676 C   0  0  0  0  0  0  0  0  0  0  0  0
  136.9159  152.8317  144.5864 C   0  0  0  0  0  0  0  0  0  0  0  0
  134.4962  151.4121  146.4112 C   0  0  0  0  0  0  0  0  0  0  0  0
  135.9899  152.8691  145.2723 C   0  0  0  0  0  0  0  0  0  0  0  0
  140.0372  150.6406  140.1392 C   0  0  0  0  0  0  0  0  0  0  0  0
  1  2  1  0
  2  3  2  0
  3  4  1  0
  4  5  2  0
  1  6  1  0
  4  7  1  0
  6  7  2  0
  5  8  1  0
  1  9  2  3
  3 10  1  0
  8 11  1  0
  8 12  2  0
 10 12  1  0
  9 13  1  0
M  END
$$$$

     RDKit          3D

 13 14  0  0  0  0  0  0  0  0999 V2000
  139.3443  149.9938  140.5872 C   0  0  0  0  0  0  0  0  0  0  0  0
  138.9756  149.9372  139.3587 C   0  0  0  0  0  0  0  0  0  0  0  0
  138.5880  150.0764  141.6359 C   0  0  0  0  0  0  0  0  0  0  0  0
  137.2185  149.9023  141.8334 C   0  0  0  0  0  0  0  0  0  0  0  0
  136.5002  149.8297  140.5761 C   0  0  0  0  0  0  0  0  0  0  0  0
  139.1863  150.3537  143.1491 C   0  0  0  0  0  0  0  0  0  0  0  0
  138.2367  150.9497  144.0909 C   0  0  0  0  0  0  0  0  0  0  0  0
  136.9516  150.8955  143.8600 C   0  0  0  0  0  0  0  0  0  0  0  0
  139.8797  149.9829  138.2590 C   0  0  0  0  0  0  0  0  0  0  0  0
  136.1730  151.3676  145.1023 C   0  0  0  0  0  0  0  0  0  0  0  0
  136.3505  150.2844  142.8860 C   0  0  0  0  0  0  0  0  0  0  0  0
  135.0533  152.1382  144.8489 C   0  0  0  0  0  0  0  0  0  0  0  0
  137.5303  149.7256  139.2674 C   0  0  0  0  0  0  0  0  0  0  0  0
  1  2  2  0
  1  3  1  0
  3  4  1  0
  4  5  2  0
  3  6  1  0
  6  7  2  0
  7  8  1  0
  2  9  1  0
  8 10  1  0
  4 11  1  0
  8 11  2  0
 10 12  1  0
  2 13  1  0
  5 13  1  0
M  END
$$$$

     RDKit          3D

 13 14  0  0  0  0  0  0  0  0999 V2000
  139.2617  151.0924  142.4042 C   0  0  0  0  0  0  0  0  0  0  0  0
  138.8616  152.1308  142.9030 C   0  0  0  0  0  0  0  0  0  0  0  0
  137.7833  151.8925  143.8931 C   0  0  0  0  0  0  0  0  0  0  0  0
  137.3594  150.5408  144.0624 C   0  0  0  0  0  0  0  0  0  0  0  0
  136.3237  150.4660  145.1229 C   0  0  0  0  0  0  0  0  0  0  0  0
  139.2662  149.7548  142.8052 C   0  0  0  0  0  0  0  0  0  0  0  0
  137.9620  149.6108  143.5780 C   0  0  0  0  0  0  0  0  0  0  0  0
  140.3561  151.2786  141.2945 C   0  0  0  0  0  0  0  0  0  0  0  0
  135.7370  151.6120  145.3977 C   0  0  0  0  0  0  0  0  0  0  0  0
  140.0786  150.7211  140.1227 C   0  0  0  0  0  0  0  0  0  0  0  0
  137.1854  152.9704  144.6532 C   0  0  0  0  0  0  0  0  0  0  0  0
  134.4941  151.4641  146.3677 C   0  0  0  0  0  0  0  0  0  0  0  0
  136.1211  152.9289  145.3337 C   0  0  0  0  0  0  0  0  0  0  0  0
  1  2  1  0
  2  3  2  0
  3  4  1  0
  4  5  2  0
  1  6  1  0
  4  7  1  0
  6  7  2  0
  1  8  2  3
  5  9  1  0
  8 10  1  0
  3 11  1  0
  9 12  1  0
  9 13  1  0
 11 13  2  0
M  END
$$$$

     RDKit          3D

 13 14  0  0  0  0  0  0  0  0999 V2000
  140.3043  150.2153  139.4787 Cl  0  0  0  0  0  0  0  0  0  0  0  0
  138.6777  150.1901  140.5340 C   0  0  0  0  0  0  0  0  0  0  0  0
  137.6379  149.3864  140.0971 C   0  0  0  0  0  0  0  0  0  0  0  0
  138.7740  150.9330  141.6513 C   0  0  0  0  0  0  0  0  0  0  0  0
  137.6926  150.8816  142.5542 C   0  0  0  0  0  0  0  0  0  0  0  0
  137.8475  151.5161  143.9010 C   0  0  0  0  0  0  0  0  0  0  0  0
  136.6428  150.1161  142.0733 C   0  0  0  0  0  0  0  0  0  0  0  0
  138.8541  152.0576  144.3014 O   0  0  0  0  0  0  0  0  0  0  0  0
  135.3998  150.2894  142.9437 C   0  0  0  0  0  0  0  0  0  0  0  0
  136.8178  151.4496  144.7191 N   0  0  0  0  0  0  0  0  0  0  0  0
  136.5097  149.4965  140.9259 C   0  0  0  0  0  0  0  0  0  0  0  0
  136.8614  151.9805  146.0357 C   0  0  0  0  0  0  0  0  0  0  0  0
  135.5656  151.0301  144.2150 C   0  0  0  0  0  0  0  0  0  0  0  0
  1  2  1  0
  2  3  1  0
  2  4  2  0
  4  5  1  0
  5  6  1  0
  5  7  2  0
  6  8  2  0
  7  9  1  0
  6 10  1  0
  3 11  2  0
  7 11  1  0
 10 12  1  0
  9 13  2  0
 10 13  1  0
M  END
$$$$

     RDKit          3D

 13 14  0  0  0  0  0  0  0  0999 V2000
  139.2617  151.0924  142.4042 C   0  0  0  0  0  0  0  0  0  0  0  0
  138.8616  152.1308  142.9030 C   0  0  0  0  0  0  0  0  0  0  0  0
  137.7833  151.8925  143.8931 C   0  0  0  0  0  0  0  0  0  0  0  0
  137.3594  150.5408  144.0624 C   0  0  0  0  0  0  0  0  0  0  0  0
  136.3237  150.4660  145.1229 C   0  0  0  0  0  0  0  0  0  0  0  0
  139.2662  149.7548  142.8052 C   0  0  0  0  0  0  0  0  0  0  0  0
  138.1543  149.4944  143.5919 C   0  0  0  0  0  0  0  0  0  0  0  0
  140.3111  151.2931  141.2559 C   0  0  0  0  0  0  0  0  0  0  0  0
  139.8977  150.4740  140.0062 C   0  0  0  0  0  0  0  0  0  0  0  0
  135.7512  151.6110  145.4048 C   0  0  0  0  0  0  0  0  0  0  0  0
  137.1414  152.8998  144.6258 C   0  0  0  0  0  0  0  0  0  0  0  0
  134.5061  151.4357  146.3902 C   0  0  0  0  0  0  0  0  0  0  0  0
  136.0782  152.8019  145.3959 C   0  0  0  0  0  0  0  0  0  0  0  0
  1  2  1  0
  2  3  2  0
  3  4  1  0
  4  5  2  0
  1  6  1  0
  4  7  1  0
  6  7  2  0
  1  8  1  0
  8  9  1  0
  5 10  1  0
  3 11  1  0
 10 12  1  0
 10 13  2  0
 11 13  2  0
M  END
$$$$

     RDKit          3D

 13 14  0  0  0  0  0  0  0  0999 V2000
  140.3043  150.2153  139.4787 Cl  0  0  0  0  0  0  0  0  0  0  0  0
  138.6777  150.1901  140.5340 C   0  0  0  0  0  0  0  0  0  0  0  0
  137.6379  149.3864  140.0971 C   0  0  0  0  0  0  0  0  0  0  0  0
  138.7740  150.9330  141.6513 C   0  0  0  0  0  0  0  0  0  0  0  0
  137.6926  150.8816  142.5542 C   0  0  0  0  0  0  0  0  0  0  0  0
  137.8475  151.5161  143.9010 C   0  0  0  0  0  0  0  0  0  0  0  0
  136.6428  150.1161  142.0733 C   0  0  0  0  0  0  0  0  0  0  0  0
  137.6262  148.7824  138.9011 C   0  0  0  0  0  0  0  0  0  0  0  0
  135.4407  150.3653  143.0972 C   0  0  0  0  0  0  0  0  0  0  0  0
  136.4349  149.4791  140.9268 C   0  0  0  0  0  0  0  0  0  0  0  0
  135.8714  151.1472  144.1830 C   0  0  0  0  0  0  0  0  0  0  0  0
  136.7457  151.5849  144.6354 C   0  0  0  0  0  0  0  0  0  0  0  0
  136.8528  152.3283  145.7147 O   0  0  0  0  0  0  0  0  0  0  0  0
  1  2  1  0
  2  3  1  0
  2  4  2  0
  4  5  1  0
  5  6  1  0
  5  7  2  0
  3  8  1  0
  7  9  1  0
  3 10  2  0
  7 10  1  0
  9 11  2  0
  6 12  1  0
 11 12  1  0
 12 13  2  0
M  END
$$$$

     RDKit          3D

 13 14  0  0  0  0  0  0  0  0999 V2000
  139.2617  151.0924  142.4042 C   0  0  0  0  0  0  0  0  0  0  0  0
  138.8616  152.1308  142.9030 C   0  0  0  0  0  0  0  0  0  0  0  0
  137.7833  151.8925  143.8931 C   0  0  0  0  0  0  0  0  0  0  0  0
  137.3594  150.5408  144.0624 C   0  0  0  0  0  0  0  0  0  0  0  0
  136.3237  150.4660  145.1229 C   0  0  0  0  0  0  0  0  0  0  0  0
  139.2662  149.7548  142.8052 C   0  0  0  0  0  0  0  0  0  0  0  0
  137.9620  149.6108  143.5780 C   0  0  0  0  0  0  0  0  0  0  0  0
  140.3561  151.2786  141.2945 C   0  0  0  0  0  0  0  0  0  0  0  0
  135.7370  151.6120  145.3977 C   0  0  0  0  0  0  0  0  0  0  0  0
  137.2368  152.9822  144.6503 C   0  0  0  0  0  0  0  0  0  0  0  0
  140.3514  150.4611  140.1834 C   0  0  0  0  0  0  0  0  0  0  0  0
  136.1883  152.8814  145.3724 C   0  0  0  0  0  0  0  0  0  0  0  0
  135.5801  153.8848  145.7846 O   0  0  0  0  0  0  0  0  0  0  0  0
  1  2  1  0
  2  3  2  0
  3  4  1  0
  4  5  2  0
  1  6  1  0
  4  7  1  0
  6  7  2  0
  1  8  2  3
  5  9  1  0
  3 10  1  0
  8 11  1  0
  9 12  1  0
 10 12  1  0
 12 13  2  0
M  END
$$$$

     RDKit          3D

 13 14  0  0  0  0  0  0  0  0999 V2000
  138.9700  151.3142  142.5680 C   0  0  0  0  0  0  0  0  0  0  0  0
  138.6028  152.0888  143.2649 C   0  0  0  0  0  0  0  0  0  0  0  0
  137.6613  151.8314  144.0472 C   0  0  0  0  0  0  0  0  0  0  0  0
  136.5817  152.7482  144.5731 C   0  0  0  0  0  0  0  0  0  0  0  0
  135.5891  152.5118  145.5181 C   0  0  0  0  0  0  0  0  0  0  0  0
  135.6197  151.0419  145.8143 C   0  0  0  0  0  0  0  0  0  0  0  0
  139.9622  151.4785  141.3913 C   0  0  0  0  0  0  0  0  0  0  0  0
  137.2345  150.4487  144.6263 C   0  0  0  0  0  0  0  0  0  0  0  0
  138.2721  149.5562  144.1273 C   0  0  0  0  0  0  0  0  0  0  0  0
  136.3628  150.1368  145.5012 C   0  0  0  0  0  0  0  0  0  0  0  0
  139.6764  150.7503  140.2414 C   0  0  0  0  0  0  0  0  0  0  0  0
  138.5907  149.9141  140.2866 C   0  0  0  0  0  0  0  0  0  0  0  0
  138.9128  149.9992  142.8798 C   0  0  0  0  0  0  0  0  0  0  0  0
  1  2  2  0
  2  3  1  0
  3  4  1  0
  4  5  2  0
  5  6  1  0
  1  7  1  0
  3  8  2  0
  8  9  1  0
  6 10  2  0
  8 10  1  0
  7 11  2  3
 11 12  1  0
  1 13  1  0
  9 13  2  0
M  END
$$$$

     RDKit          3D

 13 14  0  0  0  0  0  0  0  0999 V2000
  139.3443  149.9938  140.5872 C   0  0  0  0  0  0  0  0  0  0  0  0
  138.9756  149.9372  139.3587 C   0  0  0  0  0  0  0  0  0  0  0  0
  138.5880  150.0764  141.6359 C   0  0  0  0  0  0  0  0  0  0  0  0
  137.2185  149.9023  141.8334 C   0  0  0  0  0  0  0  0  0  0  0  0
  136.5002  149.8297  140.5761 C   0  0  0  0  0  0  0  0  0  0  0  0
  139.1863  150.3537  143.1491 C   0  0  0  0  0  0  0  0  0  0  0  0
  138.2367  150.9497  144.0909 C   0  0  0  0  0  0  0  0  0  0  0  0
  136.9516  150.8955  143.8600 C   0  0  0  0  0  0  0  0  0  0  0  0
  136.2743  150.4173  142.9344 C   0  0  0  0  0  0  0  0  0  0  0  0
  139.7848  149.9531  138.2061 C   0  0  0  0  0  0  0  0  0  0  0  0
  136.1559  151.4738  145.1019 C   0  0  0  0  0  0  0  0  0  0  0  0
  136.5830  151.7601  146.2972 C   0  0  0  0  0  0  0  0  0  0  0  0
  137.4587  149.7372  139.3300 C   0  0  0  0  0  0  0  0  0  0  0  0
  1  2  2  0
  1  3  1  0
  3  4  1  0
  4  5  2  0
  3  6  1  0
  6  7  2  0
  7  8  1  0
  4  9  1  0
  8  9  2  0
  2 10  1  0
  8 11  1  0
 11 12  2  0
  2 13  1  0
  5 13  1  0
M  END
$$$$

     RDKit          3D

 13 14  0  0  0  0  0  0  0  0999 V2000
  140.3043  150.2153  139.4787 Cl  0  0  0  0  0  0  0  0  0  0  0  0
  138.6777  150.1901  140.5340 C   0  0  0  0  0  0  0  0  0  0  0  0
  137.6379  149.3864  140.0971 C   0  0  0  0  0  0  0  0  0  0  0  0
  138.7740  150.9330  141.6513 C   0  0  0  0  0  0  0  0  0  0  0  0
  137.6926  150.8816  142.5542 C   0  0  0  0  0  0  0  0  0  0  0  0
  137.8475  151.5161  143.9010 C   0  0  0  0  0  0  0  0  0  0  0  0
  136.6428  150.1161  142.0733 C   0  0  0  0  0  0  0  0  0  0  0  0
  138.8541  152.0576  144.3014 O   0  0  0  0  0  0  0  0  0  0  0  0
  135.3998  150.2894  142.9437 C   0  0  0  0  0  0  0  0  0  0  0  0
  137.6786  148.7646  138.8686 C   0  0  0  0  0  0  0  0  0  0  0  0
  136.4647  149.4487  140.9157 C   0  0  0  0  0  0  0  0  0  0  0  0
  136.9615  151.4099  144.7439 N   0  0  0  0  0  0  0  0  0  0  0  0
  135.8343  151.0405  144.0872 C   0  0  0  0  0  0  0  0  0  0  0  0
  1  2  1  0
  2  3  1  0
  2  4  2  0
  4  5  1  0
  5  6  1  0
  5  7  2  0
  6  8  2  0
  7  9  1  0
  3 10  1  0
  3 11  2  0
  7 11  1  0
  6 12  1  0
  9 13  1  0
 12 13  1  0
M  END
$$$$

     RDKit          3D

 13 13  0  0  0  0  0  0  0  0999 V2000
  140.3043  150.2153  139.4787 Cl  0  0  0  0  0  0  0  0  0  0  0  0
  138.6777  150.1901  140.5340 C   0  0  0  0  0  0  0  0  0  0  0  0
  137.6379  149.3864  140.0971 C   0  0  0  0  0  0  0  0  0  0  0  0
  138.7740  150.9330  141.6513 C   0  0  0  0  0  0  0  0  0  0  0  0
  138.1503  150.9121  142.4451 C   0  0  0  0  0  0  0  0  0  0  0  0
  136.8417  150.0645  142.3201 C   0  0  0  0  0  0  0  0  0  0  0  0
  135.8231  150.1830  143.3116 C   0  0  0  0  0  0  0  0  0  0  0  0
  137.4901  148.8589  138.8804 C   0  0  0  0  0  0  0  0  0  0  0  0
  136.5318  149.5224  141.1352 C   0  0  0  0  0  0  0  0  0  0  0  0
  136.2964  150.4602  144.5800 C   0  0  0  0  0  0  0  0  0  0  0  0
  135.5128  150.6248  145.7911 C   0  0  0  0  0  0  0  0  0  0  0  0
  135.1665  151.9244  146.0992 C   0  0  0  0  0  0  0  0  0  0  0  0
  135.5561  152.9345  145.5846 C   0  0  0  0  0  0  0  0  0  0  0  0
  1  2  1  0
  2  3  1  0
  2  4  2  0
  4  5  1  0
  5  6  2  0
  6  7  1  0
  3  8  1  0
  3  9  2  0
  6  9  1  0
  7 10  2  3
 10 11  1  0
 11 12  1  0
 12 13  2  0
M  END
$$$$

     RDKit          3D

 13 14  0  0  0  0  0  0  0  0999 V2000
  139.3443  149.9938  140.5872 C   0  0  0  0  0  0  0  0  0  0  0  0
  138.9756  149.9372  139.3587 C   0  0  0  0  0  0  0  0  0  0  0  0
  138.5880  150.0764  141.6359 C   0  0  0  0  0  0  0  0  0  0  0  0
  137.2185  149.9023  141.8334 C   0  0  0  0  0  0  0  0  0  0  0  0
  136.5002  149.8297  140.5761 C   0  0  0  0  0  0  0  0  0  0  0  0
  139.2084  150.3134  143.0871 C   0  0  0  0  0  0  0  0  0  0  0  0
  138.4198  151.1093  143.8825 C   0  0  0  0  0  0  0  0  0  0  0  0
  136.7749  150.4863  143.0380 C   0  0  0  0  0  0  0  0  0  0  0  0
  135.1486  149.6104  140.5347 C   0  0  0  0  0  0  0  0  0  0  0  0
  137.4360  149.6686  139.2438 C   0  0  0  0  0  0  0  0  0  0  0  0
  137.2458  150.9275  144.0456 C   0  0  0  0  0  0  0  0  0  0  0  0
  136.4348  151.7092  145.1454 C   0  0  0  0  0  0  0  0  0  0  0  0
  135.1604  151.9758  144.9458 C   0  0  0  0  0  0  0  0  0  0  0  0
  1  2  2  0
  1  3  1  0
  3  4  1  0
  4  5  2  0
  3  6  1  0
  6  7  2  0
  4  8  1  0
  5  9  1  0
  2 10  1  0
  5 10  1  0
  7 11  1  0
  8 11  2  0
 11 12  1  0
 12 13  2  0
M  END
$$$$

     RDKit          3D

 13 14  0  0  0  0  0  0  0  0999 V2000
  139.2617  151.0924  142.4042 C   0  0  0  0  0  0  0  0  0  0  0  0
  138.8616  152.1308  142.9030 C   0  0  0  0  0  0  0  0  0  0  0  0
  137.7833  151.8925  143.8931 C   0  0  0  0  0  0  0  0  0  0  0  0
  137.3594  150.5408  144.0624 C   0  0  0  0  0  0  0  0  0  0  0  0
  136.3237  150.4660  145.1229 C   0  0  0  0  0  0  0  0  0  0  0  0
  139.2662  149.7548  142.8052 C   0  0  0  0  0  0  0  0  0  0  0  0
  137.9821  149.5363  143.6363 C   0  0  0  0  0  0  0  0  0  0  0  0
  135.7431  151.6428  145.3945 C   0  0  0  0  0  0  0  0  0  0  0  0
  140.2499  151.3279  141.2676 C   0  0  0  0  0  0  0  0  0  0  0  0
  136.9159  152.8317  144.5864 C   0  0  0  0  0  0  0  0  0  0  0  0
  134.4962  151.4121  146.4112 C   0  0  0  0  0  0  0  0  0  0  0  0
  140.1514  150.5732  140.0817 C   0  0  0  0  0  0  0  0  0  0  0  0
  136.1454  152.8400  145.3068 C   0  0  0  0  0  0  0  0  0  0  0  0
  1  2  1  0
  2  3  2  0
  3  4  1  0
  4  5  2  0
  1  6  1  0
  4  7  1  0
  6  7  2  0
  5  8  1  0
  1  9  2  3
  3 10  1  0
  8 11  1  0
  9 12  1  0
  8 13  2  0
 10 13  2  0
M  END
$$$$

     RDKit          3D

 13 14  0  0  0  0  0  0  0  0999 V2000
  138.9700  151.3142  142.5680 C   0  0  0  0  0  0  0  0  0  0  0  0
  138.6028  152.0888  143.2649 C   0  0  0  0  0  0  0  0  0  0  0  0
  137.4885  151.7627  144.1910 C   0  0  0  0  0  0  0  0  0  0  0  0
  139.9946  151.3890  141.4262 C   0  0  0  0  0  0  0  0  0  0  0  0
  137.1413  150.3696  144.0327 C   0  0  0  0  0  0  0  0  0  0  0  0
  138.4285  149.9931  142.3915 C   0  0  0  0  0  0  0  0  0  0  0  0
  136.7928  152.5100  145.0952 C   0  0  0  0  0  0  0  0  0  0  0  0
  136.2482  149.9545  145.1369 C   0  0  0  0  0  0  0  0  0  0  0  0
  137.5579  149.4486  143.2511 N   0  0  0  0  0  0  0  0  0  0  0  0
  135.8304  152.0696  145.8493 C   0  0  0  0  0  0  0  0  0  0  0  0
  140.1024  150.7485  140.2275 C   0  0  0  0  0  0  0  0  0  0  0  0
  135.5697  150.6863  145.9846 C   0  0  0  0  0  0  0  0  0  0  0  0
  139.9684  150.9784  139.0923 C   0  0  0  0  0  0  0  0  0  0  0  0
  1  2  1  0
  2  3  2  0
  1  4  1  0
  3  5  1  0
  1  6  2  0
  3  7  1  0
  5  8  1  0
  5  9  2  0
  6  9  1  0
  7 10  2  0
  4 11  2  3
  8 12  2  0
 10 12  1  0
 11 13  1  0
M  END
$$$$

     RDKit          3D

 13 14  0  0  0  0  0  0  0  0999 V2000
  139.2617  151.0924  142.4042 C   0  0  0  0  0  0  0  0  0  0  0  0
  138.8616  152.1308  142.9030 C   0  0  0  0  0  0  0  0  0  0  0  0
  137.7833  151.8925  143.8931 C   0  0  0  0  0  0  0  0  0  0  0  0
  137.3594  150.5408  144.0624 C   0  0  0  0  0  0  0  0  0  0  0  0
  136.3237  150.4660  145.1229 C   0  0  0  0  0  0  0  0  0  0  0  0
  139.2662  149.7548  142.8052 C   0  0  0  0  0  0  0  0  0  0  0  0
  137.9821  149.5363  143.6363 C   0  0  0  0  0  0  0  0  0  0  0  0
  135.7431  151.6428  145.3945 C   0  0  0  0  0  0  0  0  0  0  0  0
  140.2499  151.3279  141.2676 C   0  0  0  0  0  0  0  0  0  0  0  0
  137.2263  152.9743  144.6345 C   0  0  0  0  0  0  0  0  0  0  0  0
  136.2087  152.8132  145.3893 C   0  0  0  0  0  0  0  0  0  0  0  0
  135.6362  153.9460  145.8727 C   0  0  0  0  0  0  0  0  0  0  0  0
  140.0997  150.6355  140.0542 C   0  0  0  0  0  0  0  0  0  0  0  0
  1  2  1  0
  2  3  2  0
  3  4  1  0
  4  5  2  0
  1  6  1  0
  4  7  1  0
  6  7  2  0
  5  8  1  0
  1  9  2  3
  3 10  1  0
  8 11  1  0
 10 11  1  0
 11 12  2  0
  9 13  1  0
M  END
$$$$

     RDKit          3D

 13 14  0  0  0  0  0  0  0  0999 V2000
  139.2617  151.0924  142.4042 C   0  0  0  0  0  0  0  0  0  0  0  0
  138.8616  152.1308  142.9030 C   0  0  0  0  0  0  0  0  0  0  0  0
  137.7833  151.8925  143.8931 C   0  0  0  0  0  0  0  0  0  0  0  0
  137.3594  150.5408  144.0624 C   0  0  0  0  0  0  0  0  0  0  0  0
  136.3237  150.4660  145.1229 C   0  0  0  0  0  0  0  0  0  0  0  0
  139.2662  149.7548  142.8052 C   0  0  0  0  0  0  0  0  0  0  0  0
  137.9821  149.5363  143.6363 C   0  0  0  0  0  0  0  0  0  0  0  0
  140.3469  151.2519  141.2880 C   0  0  0  0  0  0  0  0  0  0  0  0
  139.9596  150.5990  140.0061 C   0  0  0  0  0  0  0  0  0  0  0  0
  135.7286  151.5960  145.4288 C   0  0  0  0  0  0  0  0  0  0  0  0
  136.9167  152.8149  144.6539 C   0  0  0  0  0  0  0  0  0  0  0  0
  136.0526  152.8241  145.3320 C   0  0  0  0  0  0  0  0  0  0  0  0
  135.3955  153.7055  145.9625 O   0  0  0  0  0  0  0  0  0  0  0  0
  1  2  1  0
  2  3  2  0
  3  4  1  0
  4  5  2  0
  1  6  1  0
  4  7  1  0
  6  7  2  0
  1  8  1  0
  8  9  1  0
  5 10  1  0
  3 11  1  0
 10 12  1  0
 11 12  1  0
 12 13  2  0
M  END
$$$$

     RDKit          3D

 13 14  0  0  0  0  0  0  0  0999 V2000
  140.3043  150.2153  139.4787 Cl  0  0  0  0  0  0  0  0  0  0  0  0
  138.6777  150.1901  140.5340 C   0  0  0  0  0  0  0  0  0  0  0  0
  137.6379  149.3864  140.0971 C   0  0  0  0  0  0  0  0  0  0  0  0
  138.7740  150.9330  141.6513 C   0  0  0  0  0  0  0  0  0  0  0  0
  137.6926  150.8816  142.5542 C   0  0  0  0  0  0  0  0  0  0  0  0
  137.8475  151.5161  143.9010 C   0  0  0  0  0  0  0  0  0  0  0  0
  136.6428  150.1161  142.0733 C   0  0  0  0  0  0  0  0  0  0  0  0
  138.8541  152.0576  144.3014 O   0  0  0  0  0  0  0  0  0  0  0  0
  135.3998  150.2894  142.9437 C   0  0  0  0  0  0  0  0  0  0  0  0
  136.4389  149.4879  140.8035 C   0  0  0  0  0  0  0  0  0  0  0  0
  135.7731  151.1456  144.1413 C   0  0  0  0  0  0  0  0  0  0  0  0
  134.3557  151.3358  145.0669 C   0  0  0  0  0  0  0  0  0  0  0  0
  136.7268  151.5011  144.7209 C   0  0  0  0  0  0  0  0  0  0  0  0
  1  2  1  0
  2  3  1  0
  2  4  2  0
  4  5  1  0
  5  6  1  0
  5  7  2  0
  6  8  2  0
  7  9  1  0
  3 10  2  0
  7 10  1  0
  9 11  1  0
 11 12  1  0
  6 13  1  0
 11 13  2  0
M  END
$$$$

     RDKit          3D

 13 14  0  0  0  0  0  0  0  0999 V2000
  139.2617  151.0924  142.4042 C   0  0  0  0  0  0  0  0  0  0  0  0
  138.8616  152.1308  142.9030 C   0  0  0  0  0  0  0  0  0  0  0  0
  137.7833  151.8925  143.8931 C   0  0  0  0  0  0  0  0  0  0  0  0
  137.3594  150.5408  144.0624 C   0  0  0  0  0  0  0  0  0  0  0  0
  136.3237  150.4660  145.1229 C   0  0  0  0  0  0  0  0  0  0  0  0
  139.2662  149.7548  142.8052 C   0  0  0  0  0  0  0  0  0  0  0  0
  137.9821  149.5363  143.6363 C   0  0  0  0  0  0  0  0  0  0  0  0
  140.3469  151.2519  141.2880 C   0  0  0  0  0  0  0  0  0  0  0  0
  135.7249  151.6057  145.4173 C   0  0  0  0  0  0  0  0  0  0  0  0
  136.9356  152.8112  144.6731 C   0  0  0  0  0  0  0  0  0  0  0  0
  136.0684  152.7145  145.4790 C   0  0  0  0  0  0  0  0  0  0  0  0
  140.0127  150.5558  140.0104 C   0  0  0  0  0  0  0  0  0  0  0  0
  135.3615  154.0104  145.8725 C   0  0  0  0  0  0  0  0  0  0  0  0
  1  2  1  0
  2  3  2  0
  3  4  1  0
  4  5  2  0
  1  6  1  0
  4  7  1  0
  6  7  2  0
  1  8  1  0
  5  9  1  0
  3 10  1  0
  9 11  2  0
 10 11  1  0
  8 12  1  0
 11 13  1  0
M  END
$$$$

     RDKit          3D

 13 14  0  0  0  0  0  0  0  0999 V2000
  139.2617  151.0924  142.4042 C   0  0  0  0  0  0  0  0  0  0  0  0
  138.8616  152.1308  142.9030 C   0  0  0  0  0  0  0  0  0  0  0  0
  137.7833  151.8925  143.8931 C   0  0  0  0  0  0  0  0  0  0  0  0
  137.3594  150.5408  144.0624 C   0  0  0  0  0  0  0  0  0  0  0  0
  136.3237  150.4660  145.1229 C   0  0  0  0  0  0  0  0  0  0  0  0
  139.2662  149.7548  142.8052 C   0  0  0  0  0  0  0  0  0  0  0  0
  137.9821  149.5363  143.6363 C   0  0  0  0  0  0  0  0  0  0  0  0
  140.3162  151.2593  141.2773 C   0  0  0  0  0  0  0  0  0  0  0  0
  135.7244  151.6055  145.4161 C   0  0  0  0  0  0  0  0  0  0  0  0
  139.9326  150.5448  140.0086 C   0  0  0  0  0  0  0  0  0  0  0  0
  136.9145  152.8143  144.6550 C   0  0  0  0  0  0  0  0  0  0  0  0
  134.4904  151.3605  146.4242 C   0  0  0  0  0  0  0  0  0  0  0  0
  136.0143  152.7800  145.3859 C   0  0  0  0  0  0  0  0  0  0  0  0
  1  2  1  0
  2  3  2  0
  3  4  1  0
  4  5  2  0
  1  6  1  0
  4  7  1  0
  6  7  2  0
  1  8  1  0
  5  9  1  0
  8 10  1  0
  3 11  1  0
  9 12  1  0
  9 13  2  0
 11 13  1  0
M  END
$$$$

     RDKit          3D

 13 14  0  0  0  0  0  0  0  0999 V2000
  138.9700  151.3142  142.5680 C   0  0  0  0  0  0  0  0  0  0  0  0
  138.6028  152.0888  143.2649 C   0  0  0  0  0  0  0  0  0  0  0  0
  139.7534  151.4391  141.3513 C   0  0  0  0  0  0  0  0  0  0  0  0
  137.7662  151.7110  144.3568 C   0  0  0  0  0  0  0  0  0  0  0  0
  139.6325  150.5472  140.2940 C   0  0  0  0  0  0  0  0  0  0  0  0
  138.5815  149.7637  142.5697 C   0  0  0  0  0  0  0  0  0  0  0  0
  136.9303  152.7248  144.9784 C   0  0  0  0  0  0  0  0  0  0  0  0
  137.8673  149.5063  143.8006 C   0  0  0  0  0  0  0  0  0  0  0  0
  138.9484  149.4300  140.3913 C   0  0  0  0  0  0  0  0  0  0  0  0
  140.6001  151.1301  139.2399 C   0  0  0  0  0  0  0  0  0  0  0  0
  137.4750  150.4488  144.7407 C   0  0  0  0  0  0  0  0  0  0  0  0
  138.6051  148.9408  141.5258 N   0  0  0  0  0  0  0  0  0  0  0  0
  135.6029  152.5185  145.3787 C   0  0  0  0  0  0  0  0  0  0  0  0
  1  2  1  0
  1  3  1  0
  2  4  2  0
  3  5  2  0
  1  6  2  0
  4  7  1  0
  6  8  1  0
  5  9  1  0
  5 10  1  0
  4 11  1  0
  8 11  2  0
  6 12  1  0
  9 12  2  0
  7 13  1  0
M  END
$$$$

     RDKit          3D

 13 14  0  0  0  0  0  0  0  0999 V2000
  140.3043  150.2153  139.4787 Cl  0  0  0  0  0  0  0  0  0  0  0  0
  138.6777  150.1901  140.5340 C   0  0  0  0  0  0  0  0  0  0  0  0
  137.6379  149.3864  140.0971 C   0  0  0  0  0  0  0  0  0  0  0  0
  138.7740  150.9330  141.6513 C   0  0  0  0  0  0  0  0  0  0  0  0
  138.1503  150.9121  142.4451 C   0  0  0  0  0  0  0  0  0  0  0  0
  138.2393  151.5036  143.8900 C   0  0  0  0  0  0  0  0  0  0  0  0
  136.9238  150.2035  142.6659 C   0  0  0  0  0  0  0  0  0  0  0  0
  136.0630  150.3375  143.8286 C   0  0  0  0  0  0  0  0  0  0  0  0
  137.6037  148.9501  138.8616 C   0  0  0  0  0  0  0  0  0  0  0  0
  136.5127  149.5351  141.0184 C   0  0  0  0  0  0  0  0  0  0  0  0
  137.2355  151.2537  144.7845 C   0  0  0  0  0  0  0  0  0  0  0  0
  137.2947  150.6016  146.0265 O   0  0  0  0  0  0  0  0  0  0  0  0
  138.5319  148.4813  138.0974 C   0  0  0  0  0  0  0  0  0  0  0  0
  1  2  1  0
  2  3  1  0
  2  4  2  0
  4  5  1  0
  5  6  1  0
  5  7  2  0
  7  8  1  0
  3  9  2  3
  3 10  1  0
  7 10  1  0
  6 11  1  0
  8 11  1  0
 11 12  1  0
  9 13  1  0
M  END
$$$$

     RDKit          3D

 13 14  0  0  0  0  0  0  0  0999 V2000
  140.3043  150.2153  139.4787 Cl  0  0  0  0  0  0  0  0  0  0  0  0
  138.6777  150.1901  140.5340 C   0  0  0  0  0  0  0  0  0  0  0  0
  137.6379  149.3864  140.0971 C   0  0  0  0  0  0  0  0  0  0  0  0
  138.7740  150.9330  141.6513 C   0  0  0  0  0  0  0  0  0  0  0  0
  137.6926  150.8816  142.5542 C   0  0  0  0  0  0  0  0  0  0  0  0
  137.8475  151.5161  143.9010 C   0  0  0  0  0  0  0  0  0  0  0  0
  136.6428  150.1161  142.0733 C   0  0  0  0  0  0  0  0  0  0  0  0
  138.8541  152.0576  144.3014 O   0  0  0  0  0  0  0  0  0  0  0  0
  135.3998  150.2894  142.9437 C   0  0  0  0  0  0  0  0  0  0  0  0
  136.8606  151.3563  144.5731 N   0  0  0  0  0  0  0  0  0  0  0  0
  136.9017  151.8330  146.0160 C   0  0  0  0  0  0  0  0  0  0  0  0
  136.4467  149.4770  140.8047 C   0  0  0  0  0  0  0  0  0  0  0  0
  135.5542  150.9505  144.1430 C   0  0  0  0  0  0  0  0  0  0  0  0
  1  2  1  0
  2  3  1  0
  2  4  2  0
  4  5  1  0
  5  6  1  0
  5  7  2  0
  6  8  2  0
  7  9  1  0
  6 10  1  0
 10 11  1  0
  3 12  2  0
  7 12  1  0
  9 13  1  0
 10 13  1  0
M  END
$$$$

     RDKit          3D

 13 14  0  0  0  0  0  0  0  0999 V2000
  139.2617  151.0924  142.4042 C   0  0  0  0  0  0  0  0  0  0  0  0
  138.8616  152.1308  142.9030 C   0  0  0  0  0  0  0  0  0  0  0  0
  137.7833  151.8925  143.8931 C   0  0  0  0  0  0  0  0  0  0  0  0
  137.3594  150.5408  144.0624 C   0  0  0  0  0  0  0  0  0  0  0  0
  136.3237  150.4660  145.1229 C   0  0  0  0  0  0  0  0  0  0  0  0
  139.2662  149.7548  142.8052 C   0  0  0  0  0  0  0  0  0  0  0  0
  137.9821  149.5363  143.6363 C   0  0  0  0  0  0  0  0  0  0  0  0
  135.7431  151.6428  145.3945 C   0  0  0  0  0  0  0  0  0  0  0  0
  140.2499  151.3279  141.2676 C   0  0  0  0  0  0  0  0  0  0  0  0
  137.2263  152.9743  144.6345 C   0  0  0  0  0  0  0  0  0  0  0  0
  134.4852  151.5057  146.3462 C   0  0  0  0  0  0  0  0  0  0  0  0
  136.2805  152.8600  145.3544 C   0  0  0  0  0  0  0  0  0  0  0  0
  140.0373  150.6333  140.1372 C   0  0  0  0  0  0  0  0  0  0  0  0
  1  2  1  0
  2  3  2  0
  3  4  1  0
  4  5  2  0
  1  6  1  0
  4  7  1  0
  6  7  2  0
  5  8  1  0
  1  9  2  3
  3 10  1  0
  8 11  1  0
  8 12  1  0
 10 12  1  0
  9 13  1  0
M  END
$$$$

     RDKit          3D

 13 14  0  0  0  0  0  0  0  0999 V2000
  138.9700  151.3142  142.5680 C   0  0  0  0  0  0  0  0  0  0  0  0
  138.6028  152.0888  143.2649 C   0  0  0  0  0  0  0  0  0  0  0  0
  137.4885  151.7627  144.1910 C   0  0  0  0  0  0  0  0  0  0  0  0
  139.9946  151.3890  141.4262 C   0  0  0  0  0  0  0  0  0  0  0  0
  139.7086  150.7368  140.2224 C   0  0  0  0  0  0  0  0  0  0  0  0
  137.0854  150.3794  143.9221 C   0  0  0  0  0  0  0  0  0  0  0  0
  138.4493  149.8970  142.0941 C   0  0  0  0  0  0  0  0  0  0  0  0
  138.9118  149.6693  140.3064 C   0  0  0  0  0  0  0  0  0  0  0  0
  136.6612  152.3493  145.2085 C   0  0  0  0  0  0  0  0  0  0  0  0
  135.5650  151.9001  145.5493 C   0  0  0  0  0  0  0  0  0  0  0  0
  138.1831  149.2865  141.1414 C   0  0  0  0  0  0  0  0  0  0  0  0
  137.1186  153.5928  145.6037 O   0  0  0  0  0  0  0  0  0  0  0  0
  137.4809  149.5863  143.3923 N   0  0  0  0  0  0  0  0  0  0  0  0
  1  2  1  0
  2  3  2  0
  1  4  1  0
  4  5  2  0
  3  6  1  0
  1  7  2  0
  5  8  1  0
  3  9  1  0
  9 10  1  0
  7 11  1  0
  8 11  2  0
  9 12  2  0
  6 13  2  0
  7 13  1  0
M  END
$$$$

     RDKit          3D

 13 14  0  0  0  0  0  0  0  0999 V2000
  138.9700  151.3142  142.5680 C   0  0  0  0  0  0  0  0  0  0  0  0
  138.6028  152.0888  143.2649 C   0  0  0  0  0  0  0  0  0  0  0  0
  137.4885  151.7627  144.1910 C   0  0  0  0  0  0  0  0  0  0  0  0
  137.1685  150.4112  144.2718 C   0  0  0  0  0  0  0  0  0  0  0  0
  136.7824  152.6364  145.0888 C   0  0  0  0  0  0  0  0  0  0  0  0
  138.5870  149.8397  142.4014 C   0  0  0  0  0  0  0  0  0  0  0  0
  137.0923  153.8621  145.1626 C   0  0  0  0  0  0  0  0  0  0  0  0
  135.6389  152.2000  145.4751 C   0  0  0  0  0  0  0  0  0  0  0  0
  136.2937  149.9824  145.2586 C   0  0  0  0  0  0  0  0  0  0  0  0
  139.2032  149.0414  141.4563 C   0  0  0  0  0  0  0  0  0  0  0  0
  134.7522  153.1565  146.0235 C   0  0  0  0  0  0  0  0  0  0  0  0
  135.2932  150.8415  145.6848 C   0  0  0  0  0  0  0  0  0  0  0  0
  137.8079  149.5327  143.3970 N   0  0  0  0  0  0  0  0  0  0  0  0
  1  2  1  0
  2  3  2  0
  3  4  1  0
  3  5  1  0
  1  6  2  0
  5  7  1  0
  5  8  2  0
  4  9  1  0
  6 10  1  0
  8 11  1  0
  8 12  1  0
  9 12  2  0
  4 13  2  0
  6 13  1  0
M  END
$$$$

     RDKit          3D

 13 14  0  0  0  0  0  0  0  0999 V2000
  139.2617  151.0924  142.4042 C   0  0  0  0  0  0  0  0  0  0  0  0
  138.8616  152.1308  142.9030 C   0  0  0  0  0  0  0  0  0  0  0  0
  137.7833  151.8925  143.8931 C   0  0  0  0  0  0  0  0  0  0  0  0
  137.3594  150.5408  144.0624 C   0  0  0  0  0  0  0  0  0  0  0  0
  136.3237  150.4660  145.1229 C   0  0  0  0  0  0  0  0  0  0  0  0
  139.2662  149.7548  142.8052 C   0  0  0  0  0  0  0  0  0  0  0  0
  137.9821  149.5363  143.6363 C   0  0  0  0  0  0  0  0  0  0  0  0
  135.7431  151.6428  145.3945 C   0  0  0  0  0  0  0  0  0  0  0  0
  140.2499  151.3279  141.2676 C   0  0  0  0  0  0  0  0  0  0  0  0
  136.9159  152.8317  144.5864 C   0  0  0  0  0  0  0  0  0  0  0  0
  136.0481  152.8051  145.2917 C   0  0  0  0  0  0  0  0  0  0  0  0
  135.3428  154.0690  145.8425 C   0  0  0  0  0  0  0  0  0  0  0  0
  140.1459  150.5533  140.0820 C   0  0  0  0  0  0  0  0  0  0  0  0
  1  2  1  0
  2  3  2  0
  3  4  1  0
  4  5  2  0
  1  6  1  0
  4  7  1  0
  6  7  2  0
  5  8  1  0
  1  9  2  3
  3 10  1  0
  8 11  2  0
 10 11  1  0
 11 12  1  0
  9 13  1  0
M  END
$$$$

     RDKit          3D

 13 13  0  0  0  0  0  0  0  0999 V2000
  138.9700  151.3142  142.5680 C   0  0  0  0  0  0  0  0  0  0  0  0
  138.6028  152.0888  143.2649 C   0  0  0  0  0  0  0  0  0  0  0  0
  137.4885  151.7627  144.1910 C   0  0  0  0  0  0  0  0  0  0  0  0
  139.9946  151.3890  141.4262 C   0  0  0  0  0  0  0  0  0  0  0  0
  137.1413  150.3696  144.0327 C   0  0  0  0  0  0  0  0  0  0  0  0
  138.4285  149.9931  142.3915 C   0  0  0  0  0  0  0  0  0  0  0  0
  136.7928  152.5100  145.0952 C   0  0  0  0  0  0  0  0  0  0  0  0
  137.0879  153.7796  145.2301 C   0  0  0  0  0  0  0  0  0  0  0  0
  135.6154  152.0446  145.6903 C   0  0  0  0  0  0  0  0  0  0  0  0
  134.7778  152.8278  146.2285 C   0  0  0  0  0  0  0  0  0  0  0  0
  137.6866  149.4944  143.2331 N   0  0  0  0  0  0  0  0  0  0  0  0
  139.7633  150.8513  140.2748 C   0  0  0  0  0  0  0  0  0  0  0  0
  140.8718  150.7031  139.2685 C   0  0  0  0  0  0  0  0  0  0  0  0
  1  2  1  0
  2  3  2  0
  1  4  1  0
  3  5  1  0
  1  6  2  0
  3  7  1  0
  7  8  1  0
  7  9  2  3
  9 10  1  0
  5 11  2  0
  6 11  1  0
  4 12  2  3
 12 13  1  0
M  END
$$$$

     RDKit          3D

 13 14  0  0  0  0  0  0  0  0999 V2000
  139.2617  151.0924  142.4042 C   0  0  0  0  0  0  0  0  0  0  0  0
  138.8616  152.1308  142.9030 C   0  0  0  0  0  0  0  0  0  0  0  0
  137.7833  151.8925  143.8931 C   0  0  0  0  0  0  0  0  0  0  0  0
  137.3594  150.5408  144.0624 C   0  0  0  0  0  0  0  0  0  0  0  0
  136.3237  150.4660  145.1229 C   0  0  0  0  0  0  0  0  0  0  0  0
  139.2662  149.7548  142.8052 C   0  0  0  0  0  0  0  0  0  0  0  0
  137.9821  149.5363  143.6363 C   0  0  0  0  0  0  0  0  0  0  0  0
  135.7431  151.6428  145.3945 C   0  0  0  0  0  0  0  0  0  0  0  0
  135.0389  151.9320  146.5128 C   0  0  0  0  0  0  0  0  0  0  0  0
  140.2529  151.3216  141.2620 C   0  0  0  0  0  0  0  0  0  0  0  0
  136.9716  152.8622  144.5487 C   0  0  0  0  0  0  0  0  0  0  0  0
  136.0104  152.8368  145.1332 C   0  0  0  0  0  0  0  0  0  0  0  0
  139.8828  150.5452  139.9713 C   0  0  0  0  0  0  0  0  0  0  0  0
  1  2  1  0
  2  3  2  0
  3  4  1  0
  4  5  2  0
  1  6  1  0
  4  7  1  0
  6  7  2  0
  5  8  1  0
  8  9  1  0
  1 10  1  0
  3 11  1  0
  8 12  1  0
 11 12  1  0
 10 13  1  0
M  END
$$$$

     RDKit          3D

 13 14  0  0  0  0  0  0  0  0999 V2000
  138.9700  151.3142  142.5680 C   0  0  0  0  0  0  0  0  0  0  0  0
  138.6028  152.0888  143.2649 C   0  0  0  0  0  0  0  0  0  0  0  0
  137.4885  151.7627  144.1910 C   0  0  0  0  0  0  0  0  0  0  0  0
  137.1685  150.4112  144.2718 C   0  0  0  0  0  0  0  0  0  0  0  0
  136.7824  152.6364  145.0888 C   0  0  0  0  0  0  0  0  0  0  0  0
  138.5870  149.8397  142.4014 C   0  0  0  0  0  0  0  0  0  0  0  0
  139.0806  148.9858  141.5391 C   0  0  0  0  0  0  0  0  0  0  0  0
  139.3317  149.6321  140.2633 C   0  0  0  0  0  0  0  0  0  0  0  0
  137.5925  149.4528  143.3882 N   0  0  0  0  0  0  0  0  0  0  0  0
  139.8314  149.1727  139.2237 O   0  0  0  0  0  0  0  0  0  0  0  0
  135.4960  152.3849  145.5788 C   0  0  0  0  0  0  0  0  0  0  0  0
  139.9078  151.0960  140.5530 C   0  0  0  0  0  0  0  0  0  0  0  0
  139.9933  151.6581  141.6162 C   0  0  0  0  0  0  0  0  0  0  0  0
  1  2  1  0
  2  3  2  0
  3  4  1  0
  3  5  1  0
  1  6  2  0
  6  7  1  0
  7  8  1  0
  4  9  2  0
  6  9  1  0
  8 10  1  0
  5 11  1  0
  8 12  1  0
  1 13  1  0
 12 13  2  0
M  END
$$$$

     RDKit          3D

 13 14  0  0  0  0  0  0  0  0999 V2000
  140.3043  150.2153  139.4787 Cl  0  0  0  0  0  0  0  0  0  0  0  0
  138.6777  150.1901  140.5340 C   0  0  0  0  0  0  0  0  0  0  0  0
  137.6379  149.3864  140.0971 C   0  0  0  0  0  0  0  0  0  0  0  0
  138.7740  150.9330  141.6513 C   0  0  0  0  0  0  0  0  0  0  0  0
  137.6926  150.8816  142.5542 C   0  0  0  0  0  0  0  0  0  0  0  0
  137.8475  151.5161  143.9010 C   0  0  0  0  0  0  0  0  0  0  0  0
  136.6428  150.1161  142.0733 C   0  0  0  0  0  0  0  0  0  0  0  0
  138.8541  152.0576  144.3014 O   0  0  0  0  0  0  0  0  0  0  0  0
  135.3998  150.2894  142.9437 C   0  0  0  0  0  0  0  0  0  0  0  0
  137.6786  148.7646  138.8686 C   0  0  0  0  0  0  0  0  0  0  0  0
  136.8715  151.3741  144.5838 N   0  0  0  0  0  0  0  0  0  0  0  0
  136.5130  149.5262  140.9191 C   0  0  0  0  0  0  0  0  0  0  0  0
  135.7661  150.9848  144.1346 C   0  0  0  0  0  0  0  0  0  0  0  0
  1  2  1  0
  2  3  1  0
  2  4  2  0
  4  5  1  0
  5  6  1  0
  5  7  2  0
  6  8  2  0
  7  9  1  0
  3 10  1  0
  6 11  1  0
  3 12  2  0
  7 12  1  0
  9 13  1  0
 11 13  2  0
M  END
$$$$

     RDKit          3D

 13 14  0  0  0  0  0  0  0  0999 V2000
  140.3043  150.2153  139.4787 Cl  0  0  0  0  0  0  0  0  0  0  0  0
  138.6777  150.1901  140.5340 C   0  0  0  0  0  0  0  0  0  0  0  0
  137.6379  149.3864  140.0971 C   0  0  0  0  0  0  0  0  0  0  0  0
  138.7740  150.9330  141.6513 C   0  0  0  0  0  0  0  0  0  0  0  0
  137.6926  150.8816  142.5542 C   0  0  0  0  0  0  0  0  0  0  0  0
  136.5950  150.1055  142.1638 C   0  0  0  0  0  0  0  0  0  0  0  0
  135.4011  150.2120  142.9996 C   0  0  0  0  0  0  0  0  0  0  0  0
  136.4392  149.4573  140.8793 C   0  0  0  0  0  0  0  0  0  0  0  0
  135.7371  151.0092  144.3166 C   0  0  0  0  0  0  0  0  0  0  0  0
  134.7992  151.1354  145.3830 C   0  0  0  0  0  0  0  0  0  0  0  0
  137.0520  151.6088  144.4569 C   0  0  0  0  0  0  0  0  0  0  0  0
  133.5222  150.9804  145.3315 C   0  0  0  0  0  0  0  0  0  0  0  0
  138.2271  151.4738  143.5401 C   0  0  0  0  0  0  0  0  0  0  0  0
  1  2  1  0
  2  3  1  0
  2  4  2  0
  4  5  1  0
  5  6  2  0
  6  7  1  0
  3  8  2  0
  6  8  1  0
  7  9  1  0
  9 10  2  3
  9 11  1  0
 10 12  1  0
  5 13  1  0
 11 13  2  0
M  END
$$$$

     RDKit          3D

 13 14  0  0  0  0  0  0  0  0999 V2000
  139.0001  149.7637  140.3651 C   0  0  0  0  0  0  0  0  0  0  0  0
  138.7140  149.5447  139.1253 C   0  0  0  0  0  0  0  0  0  0  0  0
  138.1593  150.1004  141.2813 C   0  0  0  0  0  0  0  0  0  0  0  0
  137.3241  149.5797  138.6751 C   0  0  0  0  0  0  0  0  0  0  0  0
  136.4644  149.5491  139.6303 C   0  0  0  0  0  0  0  0  0  0  0  0
  138.5755  150.4940  142.6471 C   0  0  0  0  0  0  0  0  0  0  0  0
  135.0085  149.6106  139.4557 O   0  0  0  0  0  0  0  0  0  0  0  0
  137.6846  150.8385  143.6636 C   0  0  0  0  0  0  0  0  0  0  0  0
  136.4359  150.7714  143.2617 C   0  0  0  0  0  0  0  0  0  0  0  0
  135.4691  151.2002  144.3152 C   0  0  0  0  0  0  0  0  0  0  0  0
  136.7169  149.9874  140.9805 C   0  0  0  0  0  0  0  0  0  0  0  0
  135.9571  150.3678  142.0052 C   0  0  0  0  0  0  0  0  0  0  0  0
  135.3034  150.5870  145.4254 C   0  0  0  0  0  0  0  0  0  0  0  0
  1  2  2  0
  1  3  1  0
  2  4  1  0
  4  5  2  0
  3  6  1  0
  5  7  1  0
  6  8  2  0
  8  9  1  0
  9 10  1  0
  3 11  2  0
  5 11  1  0
  9 12  2  0
 11 12  1  0
 10 13  2  0
M  END
$$$$

     RDKit          3D

 13 14  0  0  0  0  0  0  0  0999 V2000
  140.3043  150.2153  139.4787 Cl  0  0  0  0  0  0  0  0  0  0  0  0
  138.6777  150.1901  140.5340 C   0  0  0  0  0  0  0  0  0  0  0  0
  137.6379  149.3864  140.0971 C   0  0  0  0  0  0  0  0  0  0  0  0
  138.7740  150.9330  141.6513 C   0  0  0  0  0  0  0  0  0  0  0  0
  138.1503  150.9121  142.4451 C   0  0  0  0  0  0  0  0  0  0  0  0
  138.2393  151.5036  143.8900 C   0  0  0  0  0  0  0  0  0  0  0  0
  136.9238  150.2035  142.6659 C   0  0  0  0  0  0  0  0  0  0  0  0
  136.0630  150.3375  143.8286 C   0  0  0  0  0  0  0  0  0  0  0  0
  137.6037  148.9501  138.8616 C   0  0  0  0  0  0  0  0  0  0  0  0
  136.4483  149.6748  141.6146 N   0  0  0  0  0  0  0  0  0  0  0  0
  136.7211  151.1983  144.6609 C   0  0  0  0  0  0  0  0  0  0  0  0
  136.6239  149.2717  140.4284 C   0  0  0  0  0  0  0  0  0  0  0  0
  136.5146  151.7026  145.9149 C   0  0  0  0  0  0  0  0  0  0  0  0
  1  2  1  0
  2  3  1  0
  2  4  2  0
  4  5  1  0
  5  6  1  0
  5  7  2  0
  7  8  1  0
  3  9  1  0
  7 10  1  0
  6 11  1  0
  8 11  2  0
  3 12  2  0
 10 12  2  0
 11 13  1  0
M  END
$$$$

     RDKit          3D

 13 14  0  0  0  0  0  0  0  0999 V2000
  139.3952  150.7507  142.0137 C   0  0  0  0  0  0  0  0  0  0  0  0
  139.0644  150.4897  140.7536 C   0  0  0  0  0  0  0  0  0  0  0  0
  138.4483  150.6369  143.0431 C   0  0  0  0  0  0  0  0  0  0  0  0
  137.8331  149.9861  140.4382 C   0  0  0  0  0  0  0  0  0  0  0  0
  136.8982  149.7660  141.3331 C   0  0  0  0  0  0  0  0  0  0  0  0
  138.7726  151.0467  144.4230 C   0  0  0  0  0  0  0  0  0  0  0  0
  137.7582  151.8318  144.9146 C   0  0  0  0  0  0  0  0  0  0  0  0
  136.5167  151.8610  144.3904 C   0  0  0  0  0  0  0  0  0  0  0  0
  135.4925  152.5904  145.1934 C   0  0  0  0  0  0  0  0  0  0  0  0
  135.4756  149.5164  140.9740 C   0  0  0  0  0  0  0  0  0  0  0  0
  136.3584  151.1078  143.3557 C   0  0  0  0  0  0  0  0  0  0  0  0
  137.1048  150.3700  142.5934 C   0  0  0  0  0  0  0  0  0  0  0  0
  134.6966  151.9240  146.0126 C   0  0  0  0  0  0  0  0  0  0  0  0
  1  2  2  0
  1  3  1  0
  2  4  1  0
  4  5  2  0
  3  6  1  0
  6  7  2  0
  7  8  1  0
  8  9  1  0
  5 10  1  0
  8 11  2  0
  3 12  2  0
  5 12  1  0
 11 12  1  0
  9 13  1  0
M  END
$$$$

     RDKit          3D

 13 14  0  0  0  0  0  0  0  0999 V2000
  139.3443  149.9938  140.5872 C   0  0  0  0  0  0  0  0  0  0  0  0
  138.9756  149.9372  139.3587 C   0  0  0  0  0  0  0  0  0  0  0  0
  138.5880  150.0764  141.6359 C   0  0  0  0  0  0  0  0  0  0  0  0
  137.2185  149.9023  141.8334 C   0  0  0  0  0  0  0  0  0  0  0  0
  136.5002  149.8297  140.5761 C   0  0  0  0  0  0  0  0  0  0  0  0
  139.1863  150.3537  143.1491 C   0  0  0  0  0  0  0  0  0  0  0  0
  138.2367  150.9497  144.0909 C   0  0  0  0  0  0  0  0  0  0  0  0
  136.9516  150.8955  143.8600 C   0  0  0  0  0  0  0  0  0  0  0  0
  139.8797  149.9829  138.2590 C   0  0  0  0  0  0  0  0  0  0  0  0
  136.9053  149.6532  139.3540 C   0  0  0  0  0  0  0  0  0  0  0  0
  136.2694  150.4291  142.9642 C   0  0  0  0  0  0  0  0  0  0  0  0
  137.9957  149.7423  138.6750 C   0  0  0  0  0  0  0  0  0  0  0  0
  135.9957  151.6708  145.2602 Cl  0  0  0  0  0  0  0  0  0  0  0  0
  1  2  2  0
  1  3  1  0
  3  4  1  0
  4  5  2  0
  3  6  1  0
  6  7  2  0
  7  8  1  0
  2  9  1  0
  5 10  1  0
  4 11  1  0
  8 11  2  0
  2 12  1  0
 10 12  2  0
  8 13  1  0
M  END
$$$$

     RDKit          3D

 13 14  0  0  0  0  0  0  0  0999 V2000
  139.3443  149.9938  140.5872 C   0  0  0  0  0  0  0  0  0  0  0  0
  138.9756  149.9372  139.3587 C   0  0  0  0  0  0  0  0  0  0  0  0
  138.5880  150.0764  141.6359 C   0  0  0  0  0  0  0  0  0  0  0  0
  137.6059  149.8647  139.0257 C   0  0  0  0  0  0  0  0  0  0  0  0
  139.0697  150.4801  142.9898 C   0  0  0  0  0  0  0  0  0  0  0  0
  138.1044  151.0378  143.9796 C   0  0  0  0  0  0  0  0  0  0  0  0
  136.8009  150.9156  143.5439 C   0  0  0  0  0  0  0  0  0  0  0  0
  135.8679  151.4507  144.5849 C   0  0  0  0  0  0  0  0  0  0  0  0
  136.6638  149.8487  140.1595 C   0  0  0  0  0  0  0  0  0  0  0  0
  137.1145  150.0477  141.4021 C   0  0  0  0  0  0  0  0  0  0  0  0
  136.4163  150.3889  142.3667 N   0  0  0  0  0  0  0  0  0  0  0  0
  135.9716  152.6062  145.0608 C   0  0  0  0  0  0  0  0  0  0  0  0
  135.1296  153.0901  146.1948 C   0  0  0  0  0  0  0  0  0  0  0  0
  1  2  2  0
  1  3  1  0
  2  4  1  0
  3  5  1  0
  5  6  2  0
  6  7  1  0
  7  8  1  0
  4  9  2  0
  3 10  2  0
  9 10  1  0
  7 11  2  0
 10 11  1  0
  8 12  2  3
 12 13  1  0
M  END
$$$$

     RDKit          3D

 13 14  0  0  0  0  0  0  0  0999 V2000
  139.2617  151.0924  142.4042 C   0  0  0  0  0  0  0  0  0  0  0  0
  138.8616  152.1308  142.9030 C   0  0  0  0  0  0  0  0  0  0  0  0
  137.9129  151.7989  143.7815 C   0  0  0  0  0  0  0  0  0  0  0  0
  138.8296  150.4005  141.6037 C   0  0  0  0  0  0  0  0  0  0  0  0
  137.2795  150.5116  143.6586 C   0  0  0  0  0  0  0  0  0  0  0  0
  139.3647  149.8221  140.3408 C   0  0  0  0  0  0  0  0  0  0  0  0
  140.5310  149.7146  139.9599 C   0  0  0  0  0  0  0  0  0  0  0  0
  138.3249  149.5444  139.4316 C   0  0  0  0  0  0  0  0  0  0  0  0
  137.4971  149.8620  142.5178 C   0  0  0  0  0  0  0  0  0  0  0  0
  138.7602  149.3777  138.0707 C   0  0  0  0  0  0  0  0  0  0  0  0
  140.8124  149.6873  138.6749 C   0  0  0  0  0  0  0  0  0  0  0  0
  137.6752  149.0939  137.1003 C   0  0  0  0  0  0  0  0  0  0  0  0
  140.1035  149.4041  137.7200 C   0  0  0  0  0  0  0  0  0  0  0  0
  1  2  1  0
  2  3  2  0
  1  4  2  0
  3  5  1  0
  4  6  1  0
  6  7  1  0
  6  8  2  0
  4  9  1  0
  5  9  2  0
  8 10  1  0
  7 11  2  0
 10 12  1  0
 10 13  2  0
 11 13  1  0
M  END
$$$$

     RDKit          3D

 13 14  0  0  0  0  0  0  0  0999 V2000
  139.2617  151.0924  142.4042 C   0  0  0  0  0  0  0  0  0  0  0  0
  138.8616  152.1308  142.9030 C   0  0  0  0  0  0  0  0  0  0  0  0
  137.7833  151.8925  143.8931 C   0  0  0  0  0  0  0  0  0  0  0  0
  137.3594  150.5408  144.0624 C   0  0  0  0  0  0  0  0  0  0  0  0
  136.3237  150.4660  145.1229 C   0  0  0  0  0  0  0  0  0  0  0  0
  139.2662  149.7548  142.8052 C   0  0  0  0  0  0  0  0  0  0  0  0
  137.9821  149.5363  143.6363 C   0  0  0  0  0  0  0  0  0  0  0  0
  135.7431  151.6428  145.3945 C   0  0  0  0  0  0  0  0  0  0  0  0
  140.2499  151.3279  141.2676 C   0  0  0  0  0  0  0  0  0  0  0  0
  140.1619  150.5385  140.0916 C   0  0  0  0  0  0  0  0  0  0  0  0
  136.9112  152.8423  144.5692 C   0  0  0  0  0  0  0  0  0  0  0  0
  136.0754  152.7690  145.4268 C   0  0  0  0  0  0  0  0  0  0  0  0
  135.1920  153.7606  145.6951 C   0  0  0  0  0  0  0  0  0  0  0  0
  1  2  1  0
  2  3  2  0
  3  4  1  0
  4  5  2  0
  1  6  1  0
  4  7  1  0
  6  7  2  0
  5  8  1  0
  1  9  2  3
  9 10  1  0
  3 11  1  0
  8 12  1  0
 11 12  1  0
 12 13  1  0
M  END
$$$$

     RDKit          3D

 13 14  0  0  0  0  0  0  0  0999 V2000
  139.3443  149.9938  140.5872 C   0  0  0  0  0  0  0  0  0  0  0  0
  138.9756  149.9372  139.3587 C   0  0  0  0  0  0  0  0  0  0  0  0
  138.5880  150.0764  141.6359 C   0  0  0  0  0  0  0  0  0  0  0  0
  137.2185  149.9023  141.8334 C   0  0  0  0  0  0  0  0  0  0  0  0
  136.5002  149.8297  140.5761 C   0  0  0  0  0  0  0  0  0  0  0  0
  139.2084  150.3134  143.0871 C   0  0  0  0  0  0  0  0  0  0  0  0
  138.4198  151.1093  143.8825 C   0  0  0  0  0  0  0  0  0  0  0  0
  136.7749  150.4863  143.0380 C   0  0  0  0  0  0  0  0  0  0  0  0
  135.1486  149.6104  140.5347 C   0  0  0  0  0  0  0  0  0  0  0  0
  137.2319  150.8935  144.0832 C   0  0  0  0  0  0  0  0  0  0  0  0
  137.4095  149.6940  139.2727 C   0  0  0  0  0  0  0  0  0  0  0  0
  136.4479  151.7040  145.1451 C   0  0  0  0  0  0  0  0  0  0  0  0
  135.1957  152.0441  144.9288 C   0  0  0  0  0  0  0  0  0  0  0  0
  1  2  2  0
  1  3  1  0
  3  4  1  0
  4  5  2  0
  3  6  1  0
  6  7  2  0
  4  8  1  0
  5  9  1  0
  7 10  1  0
  8 10  2  0
  2 11  1  0
  5 11  1  0
 10 12  1  0
 12 13  1  0
M  END
$$$$

     RDKit          3D

 13 14  0  0  0  0  0  0  0  0999 V2000
  139.3443  149.9938  140.5872 C   0  0  0  0  0  0  0  0  0  0  0  0
  138.9756  149.9372  139.3587 C   0  0  0  0  0  0  0  0  0  0  0  0
  138.5880  150.0764  141.6359 C   0  0  0  0  0  0  0  0  0  0  0  0
  137.2185  149.9023  141.8334 C   0  0  0  0  0  0  0  0  0  0  0  0
  136.5002  149.8297  140.5761 C   0  0  0  0  0  0  0  0  0  0  0  0
  139.1863  150.3537  143.1491 C   0  0  0  0  0  0  0  0  0  0  0  0
  138.2367  150.9497  144.0909 C   0  0  0  0  0  0  0  0  0  0  0  0
  136.9516  150.8955  143.8600 C   0  0  0  0  0  0  0  0  0  0  0  0
  139.8797  149.9829  138.2590 C   0  0  0  0  0  0  0  0  0  0  0  0
  136.1730  151.3676  145.1023 C   0  0  0  0  0  0  0  0  0  0  0  0
  135.0651  152.2528  144.8493 C   0  0  0  0  0  0  0  0  0  0  0  0
  137.1560  149.7763  139.2562 C   0  0  0  0  0  0  0  0  0  0  0  0
  136.4480  150.3791  142.8859 N   0  0  0  0  0  0  0  0  0  0  0  0
  1  2  2  0
  1  3  1  0
  3  4  1  0
  4  5  2  0
  3  6  1  0
  6  7  2  0
  7  8  1  0
  2  9  1  0
  8 10  1  0
 10 11  1  0
  2 12  1  0
  5 12  1  0
  4 13  1  0
  8 13  2  0
M  END
$$$$

     RDKit          3D

 13 14  0  0  0  0  0  0  0  0999 V2000
  138.9700  151.3142  142.5680 C   0  0  0  0  0  0  0  0  0  0  0  0
  138.6028  152.0888  143.2649 C   0  0  0  0  0  0  0  0  0  0  0  0
  137.4885  151.7627  144.1910 C   0  0  0  0  0  0  0  0  0  0  0  0
  139.9946  151.3890  141.4262 C   0  0  0  0  0  0  0  0  0  0  0  0
  139.7086  150.7368  140.2224 C   0  0  0  0  0  0  0  0  0  0  0  0
  137.0854  150.3794  143.9221 C   0  0  0  0  0  0  0  0  0  0  0  0
  138.4493  149.8970  142.0941 C   0  0  0  0  0  0  0  0  0  0  0  0
  138.9118  149.6693  140.3064 C   0  0  0  0  0  0  0  0  0  0  0  0
  136.6612  152.3493  145.2085 C   0  0  0  0  0  0  0  0  0  0  0  0
  135.5650  151.9001  145.5493 C   0  0  0  0  0  0  0  0  0  0  0  0
  138.1831  149.2865  141.1414 C   0  0  0  0  0  0  0  0  0  0  0  0
  137.1186  153.5928  145.6037 C   0  0  0  0  0  0  0  0  0  0  0  0
  137.6333  149.5339  143.4058 N   0  0  0  0  0  0  0  0  0  0  0  0
  1  2  1  0
  2  3  2  0
  1  4  1  0
  4  5  2  0
  3  6  1  0
  1  7  2  0
  5  8  1  0
  3  9  1  0
  9 10  1  0
  7 11  1  0
  8 11  2  0
  9 12  2  0
  6 13  2  0
  7 13  1  0
M  END
$$$$

     RDKit          3D

 13 14  0  0  0  0  0  0  0  0999 V2000
  139.2617  151.0924  142.4042 C   0  0  0  0  0  0  0  0  0  0  0  0
  138.8616  152.1308  142.9030 C   0  0  0  0  0  0  0  0  0  0  0  0
  137.7833  151.8925  143.8931 C   0  0  0  0  0  0  0  0  0  0  0  0
  137.3594  150.5408  144.0624 C   0  0  0  0  0  0  0  0  0  0  0  0
  136.3237  150.4660  145.1229 C   0  0  0  0  0  0  0  0  0  0  0  0
  139.2662  149.7548  142.8052 C   0  0  0  0  0  0  0  0  0  0  0  0
  137.9821  149.5363  143.6363 C   0  0  0  0  0  0  0  0  0  0  0  0
  140.3162  151.2593  141.2773 C   0  0  0  0  0  0  0  0  0  0  0  0
  135.7244  151.6055  145.4161 C   0  0  0  0  0  0  0  0  0  0  0  0
  139.9326  150.5448  140.0086 C   0  0  0  0  0  0  0  0  0  0  0  0
  136.9145  152.8143  144.6550 C   0  0  0  0  0  0  0  0  0  0  0  0
  134.4904  151.3605  146.4242 C   0  0  0  0  0  0  0  0  0  0  0  0
  136.0439  152.8714  145.2653 C   0  0  0  0  0  0  0  0  0  0  0  0
  1  2  1  0
  2  3  2  0
  3  4  1  0
  4  5  2  0
  1  6  1  0
  4  7  1  0
  6  7  2  0
  1  8  1  0
  5  9  1  0
  8 10  1  0
  3 11  1  0
  9 12  1  0
  9 13  1  0
 11 13  2  0
M  END
$$$$

     RDKit          3D

 13 14  0  0  0  0  0  0  0  0999 V2000
  139.3443  149.9938  140.5872 C   0  0  0  0  0  0  0  0  0  0  0  0
  138.9756  149.9372  139.3587 C   0  0  0  0  0  0  0  0  0  0  0  0
  138.5880  150.0764  141.6359 C   0  0  0  0  0  0  0  0  0  0  0  0
  137.6059  149.8647  139.0257 C   0  0  0  0  0  0  0  0  0  0  0  0
  139.0697  150.4801  142.9898 C   0  0  0  0  0  0  0  0  0  0  0  0
  138.1044  151.0378  143.9796 C   0  0  0  0  0  0  0  0  0  0  0  0
  136.8009  150.9156  143.5439 C   0  0  0  0  0  0  0  0  0  0  0  0
  135.8679  151.4507  144.5849 C   0  0  0  0  0  0  0  0  0  0  0  0
  136.6638  149.8487  140.1595 C   0  0  0  0  0  0  0  0  0  0  0  0
  137.1145  150.0477  141.4021 C   0  0  0  0  0  0  0  0  0  0  0  0
  136.3480  150.3904  142.3633 N   0  0  0  0  0  0  0  0  0  0  0  0
  135.9924  152.6207  145.0702 C   0  0  0  0  0  0  0  0  0  0  0  0
  136.9793  153.5259  144.7691 C   0  0  0  0  0  0  0  0  0  0  0  0
  1  2  2  0
  1  3  1  0
  2  4  1  0
  3  5  1  0
  5  6  2  0
  6  7  1  0
  7  8  1  0
  4  9  2  0
  3 10  2  0
  9 10  1  0
  7 11  2  0
 10 11  1  0
  8 12  1  0
 12 13  2  0
M  END
$$$$

     RDKit          3D

 13 14  0  0  0  0  0  0  0  0999 V2000
  138.9700  151.3142  142.5680 C   0  0  0  0  0  0  0  0  0  0  0  0
  138.6028  152.0888  143.2649 C   0  0  0  0  0  0  0  0  0  0  0  0
  137.4885  151.7627  144.1910 C   0  0  0  0  0  0  0  0  0  0  0  0
  137.1685  150.4112  144.2718 C   0  0  0  0  0  0  0  0  0  0  0  0
  136.7824  152.6364  145.0888 C   0  0  0  0  0  0  0  0  0  0  0  0
  138.5870  149.8397  142.4014 C   0  0  0  0  0  0  0  0  0  0  0  0
  137.0923  153.8621  145.1626 C   0  0  0  0  0  0  0  0  0  0  0  0
  135.6389  152.2000  145.4751 C   0  0  0  0  0  0  0  0  0  0  0  0
  136.2937  149.9824  145.2586 C   0  0  0  0  0  0  0  0  0  0  0  0
  135.4601  151.0367  145.8945 C   0  0  0  0  0  0  0  0  0  0  0  0
  139.1223  149.0202  141.4925 C   0  0  0  0  0  0  0  0  0  0  0  0
  138.9025  149.3665  140.0804 C   0  0  0  0  0  0  0  0  0  0  0  0
  137.7820  149.5675  143.4711 N   0  0  0  0  0  0  0  0  0  0  0  0
  1  2  1  0
  2  3  2  0
  3  4  1  0
  3  5  1  0
  1  6  2  0
  5  7  1  0
  5  8  2  0
  4  9  1  0
  8 10  1  0
  9 10  2  0
  6 11  1  0
 11 12  1  0
  4 13  2  0
  6 13  1  0
M  END
$$$$

     RDKit          3D

 13 14  0  0  0  0  0  0  0  0999 V2000
  139.3952  150.7507  142.0137 C   0  0  0  0  0  0  0  0  0  0  0  0
  139.0644  150.4897  140.7536 C   0  0  0  0  0  0  0  0  0  0  0  0
  138.4483  150.6369  143.0431 C   0  0  0  0  0  0  0  0  0  0  0  0
  137.8331  149.9861  140.4382 C   0  0  0  0  0  0  0  0  0  0  0  0
  136.8982  149.7660  141.3331 C   0  0  0  0  0  0  0  0  0  0  0  0
  138.7726  151.0467  144.4230 C   0  0  0  0  0  0  0  0  0  0  0  0
  137.7582  151.8318  144.9146 C   0  0  0  0  0  0  0  0  0  0  0  0
  136.5844  151.8374  144.4821 C   0  0  0  0  0  0  0  0  0  0  0  0
  137.0803  150.3362  142.6651 C   0  0  0  0  0  0  0  0  0  0  0  0
  136.0609  151.0067  143.5087 C   0  0  0  0  0  0  0  0  0  0  0  0
  135.5106  152.5848  145.3080 C   0  0  0  0  0  0  0  0  0  0  0  0
  134.7164  151.9568  146.1985 C   0  0  0  0  0  0  0  0  0  0  0  0
  140.0570  150.6197  139.6905 C   0  0  0  0  0  0  0  0  0  0  0  0
  1  2  2  0
  1  3  1  0
  2  4  1  0
  4  5  2  0
  3  6  1  0
  6  7  2  0
  7  8  1  0
  3  9  2  0
  5  9  1  0
  8 10  2  0
  9 10  1  0
  8 11  1  0
 11 12  1  0
  2 13  1  0
M  END
$$$$

     RDKit          3D

 13 13  0  0  0  0  0  0  0  0999 V2000
  138.7088  151.1469  142.6270 C   0  0  0  0  0  0  0  0  0  0  0  0
  138.5262  151.9374  143.5115 C   0  0  0  0  0  0  0  0  0  0  0  0
  137.3922  151.8105  144.0744 C   0  0  0  0  0  0  0  0  0  0  0  0
  138.6989  150.6878  141.4235 C   0  0  0  0  0  0  0  0  0  0  0  0
  136.4557  150.8644  143.7045 C   0  0  0  0  0  0  0  0  0  0  0  0
  136.7425  152.6554  145.2883 C   0  0  0  0  0  0  0  0  0  0  0  0
  139.2512  150.0236  140.1454 C   0  0  0  0  0  0  0  0  0  0  0  0
  138.2793  149.5157  139.4520 C   0  0  0  0  0  0  0  0  0  0  0  0
  140.5055  150.4220  139.9459 C   0  0  0  0  0  0  0  0  0  0  0  0
  140.9970  149.8942  138.6474 C   0  0  0  0  0  0  0  0  0  0  0  0
  140.2775  149.3300  137.7292 C   0  0  0  0  0  0  0  0  0  0  0  0
  140.8338  148.9323  136.5353 O   0  0  0  0  0  0  0  0  0  0  0  0
  138.8927  149.0098  138.0238 C   0  0  0  0  0  0  0  0  0  0  0  0
  1  2  1  0
  2  3  2  3
  1  4  3  0
  3  5  1  0
  3  6  1  0
  4  7  1  0
  7  8  2  0
  7  9  1  0
  9 10  2  0
 10 11  1  0
 11 12  1  0
  8 13  1  0
 11 13  2  0
M  END
$$$$

     RDKit          3D

 13 14  0  0  0  0  0  0  0  0999 V2000
  138.9700  151.3142  142.5680 C   0  0  0  0  0  0  0  0  0  0  0  0
  138.6028  152.0888  143.2649 C   0  0  0  0  0  0  0  0  0  0  0  0
  137.6613  151.8314  144.0472 C   0  0  0  0  0  0  0  0  0  0  0  0
  136.5817  152.7482  144.5731 C   0  0  0  0  0  0  0  0  0  0  0  0
  135.5891  152.5118  145.5181 C   0  0  0  0  0  0  0  0  0  0  0  0
  135.6197  151.0419  145.8143 C   0  0  0  0  0  0  0  0  0  0  0  0
  139.9622  151.4785  141.3913 C   0  0  0  0  0  0  0  0  0  0  0  0
  137.2345  150.4487  144.6263 C   0  0  0  0  0  0  0  0  0  0  0  0
  138.2721  149.5562  144.1273 C   0  0  0  0  0  0  0  0  0  0  0  0
  134.4975  150.8451  146.9057 C   0  0  0  0  0  0  0  0  0  0  0  0
  136.3347  150.1091  145.4810 C   0  0  0  0  0  0  0  0  0  0  0  0
  139.6824  150.7468  140.2432 C   0  0  0  0  0  0  0  0  0  0  0  0
  139.0474  150.0235  142.9387 C   0  0  0  0  0  0  0  0  0  0  0  0
  1  2  2  0
  2  3  1  0
  3  4  1  0
  4  5  2  0
  5  6  1  0
  1  7  1  0
  3  8  2  0
  8  9  1  0
  6 10  1  0
  6 11  2  0
  8 11  1  0
  7 12  2  0
  1 13  1  0
  9 13  2  0
M  END
$$$$

     RDKit          3D

 13 14  0  0  0  0  0  0  0  0999 V2000
  138.7088  151.1469  142.6270 C   0  0  0  0  0  0  0  0  0  0  0  0
  138.5262  151.9374  143.5115 C   0  0  0  0  0  0  0  0  0  0  0  0
  137.3922  151.8105  144.0744 C   0  0  0  0  0  0  0  0  0  0  0  0
  136.5951  150.6201  143.9738 C   0  0  0  0  0  0  0  0  0  0  0  0
  137.9799  149.9622  142.2560 C   0  0  0  0  0  0  0  0  0  0  0  0
  136.5087  152.7504  145.0878 C   0  0  0  0  0  0  0  0  0  0  0  0
  135.4530  152.3058  145.6999 C   0  0  0  0  0  0  0  0  0  0  0  0
  135.4658  150.4722  144.8138 C   0  0  0  0  0  0  0  0  0  0  0  0
  136.9356  149.6951  142.9555 C   0  0  0  0  0  0  0  0  0  0  0  0
  134.8926  151.1756  145.6611 C   0  0  0  0  0  0  0  0  0  0  0  0
  140.0479  151.3278  141.7434 O   0  0  0  0  0  0  0  0  0  0  0  0
  134.9482  153.5448  146.5140 C   0  0  0  0  0  0  0  0  0  0  0  0
  139.9692  150.5344  140.5347 C   0  0  0  0  0  0  0  0  0  0  0  0
  1  2  1  0
  2  3  2  0
  3  4  1  0
  1  5  2  0
  3  6  1  0
  6  7  1  0
  4  8  1  0
  4  9  2  0
  5  9  1  0
  7 10  1  0
  8 10  2  0
  1 11  1  0
  7 12  2  0
 11 13  1  0
M  END
$$$$

     RDKit          3D

 13 14  0  0  0  0  0  0  0  0999 V2000
  140.3043  150.2153  139.4787 Cl  0  0  0  0  0  0  0  0  0  0  0  0
  138.6777  150.1901  140.5340 C   0  0  0  0  0  0  0  0  0  0  0  0
  137.6379  149.3864  140.0971 C   0  0  0  0  0  0  0  0  0  0  0  0
  138.7740  150.9330  141.6513 C   0  0  0  0  0  0  0  0  0  0  0  0
  137.6926  150.8816  142.5542 C   0  0  0  0  0  0  0  0  0  0  0  0
  137.8475  151.5161  143.9010 C   0  0  0  0  0  0  0  0  0  0  0  0
  136.6428  150.1161  142.0733 C   0  0  0  0  0  0  0  0  0  0  0  0
  138.8541  152.0576  144.3014 O   0  0  0  0  0  0  0  0  0  0  0  0
  135.3998  150.2894  142.9437 C   0  0  0  0  0  0  0  0  0  0  0  0
  136.4570  149.5024  140.8721 C   0  0  0  0  0  0  0  0  0  0  0  0
  135.7662  151.1539  144.1460 C   0  0  0  0  0  0  0  0  0  0  0  0
  134.3553  151.3512  145.0686 C   0  0  0  0  0  0  0  0  0  0  0  0
  137.0400  151.4831  144.6903 N   0  0  0  0  0  0  0  0  0  0  0  0
  1  2  1  0
  2  3  1  0
  2  4  2  0
  4  5  1  0
  5  6  1  0
  5  7  2  0
  6  8  2  0
  7  9  1  0
  3 10  2  0
  7 10  1  0
  9 11  1  0
 11 12  1  0
  6 13  1  0
 11 13  2  0
M  END
$$$$

     RDKit          3D

 13 14  0  0  0  0  0  0  0  0999 V2000
  138.9700  151.3142  142.5680 C   0  0  0  0  0  0  0  0  0  0  0  0
  138.6028  152.0888  143.2649 C   0  0  0  0  0  0  0  0  0  0  0  0
  137.4885  151.7627  144.1910 C   0  0  0  0  0  0  0  0  0  0  0  0
  139.9946  151.3890  141.4262 C   0  0  0  0  0  0  0  0  0  0  0  0
  139.7086  150.7368  140.2224 C   0  0  0  0  0  0  0  0  0  0  0  0
  137.0854  150.3794  143.9221 C   0  0  0  0  0  0  0  0  0  0  0  0
  138.4493  149.8970  142.0941 C   0  0  0  0  0  0  0  0  0  0  0  0
  138.9118  149.6693  140.3064 C   0  0  0  0  0  0  0  0  0  0  0  0
  136.6612  152.3493  145.2085 C   0  0  0  0  0  0  0  0  0  0  0  0
  135.5650  151.9001  145.5493 C   0  0  0  0  0  0  0  0  0  0  0  0
  137.0973  153.5926  145.6046 C   0  0  0  0  0  0  0  0  0  0  0  0
  138.1793  149.2901  141.1446 C   0  0  0  0  0  0  0  0  0  0  0  0
  137.6353  149.5347  143.4086 N   0  0  0  0  0  0  0  0  0  0  0  0
  1  2  1  0
  2  3  2  0
  1  4  1  0
  4  5  2  0
  3  6  1  0
  1  7  2  0
  5  8  1  0
  3  9  1  0
  9 10  1  0
  9 11  2  0
  7 12  1  0
  8 12  2  0
  6 13  1  0
  7 13  1  0
M  END
$$$$

     RDKit          3D

 13 14  0  0  0  0  0  0  0  0999 V2000
  138.9700  151.3142  142.5680 C   0  0  0  0  0  0  0  0  0  0  0  0
  138.6028  152.0888  143.2649 C   0  0  0  0  0  0  0  0  0  0  0  0
  137.4885  151.7627  144.1910 C   0  0  0  0  0  0  0  0  0  0  0  0
  139.9946  151.3890  141.4262 C   0  0  0  0  0  0  0  0  0  0  0  0
  137.1413  150.3696  144.0327 C   0  0  0  0  0  0  0  0  0  0  0  0
  138.4285  149.9931  142.3915 C   0  0  0  0  0  0  0  0  0  0  0  0
  136.7928  152.5100  145.0952 C   0  0  0  0  0  0  0  0  0  0  0  0
  137.0879  153.7796  145.2301 C   0  0  0  0  0  0  0  0  0  0  0  0
  135.6154  152.0446  145.6903 C   0  0  0  0  0  0  0  0  0  0  0  0
  136.2589  150.0102  145.1297 C   0  0  0  0  0  0  0  0  0  0  0  0
  137.5780  149.3857  143.2841 N   0  0  0  0  0  0  0  0  0  0  0  0
  139.7881  150.8598  140.2422 C   0  0  0  0  0  0  0  0  0  0  0  0
  135.3815  150.7149  145.8515 C   0  0  0  0  0  0  0  0  0  0  0  0
  1  2  1  0
  2  3  2  0
  1  4  1  0
  3  5  1  0
  1  6  2  0
  3  7  1  0
  7  8  1  0
  7  9  2  0
  5 10  1  0
  5 11  2  0
  6 11  1  0
  4 12  1  0
  9 13  1  0
 10 13  2  0
M  END
$$$$

     RDKit          3D

 13 14  0  0  0  0  0  0  0  0999 V2000
  140.3043  150.2153  139.4787 Cl  0  0  0  0  0  0  0  0  0  0  0  0
  138.6777  150.1901  140.5340 C   0  0  0  0  0  0  0  0  0  0  0  0
  137.6379  149.3864  140.0971 C   0  0  0  0  0  0  0  0  0  0  0  0
  138.7740  150.9330  141.6513 C   0  0  0  0  0  0  0  0  0  0  0  0
  138.1503  150.9121  142.4451 C   0  0  0  0  0  0  0  0  0  0  0  0
  138.2393  151.5036  143.8900 C   0  0  0  0  0  0  0  0  0  0  0  0
  136.9238  150.2035  142.6659 C   0  0  0  0  0  0  0  0  0  0  0  0
  136.0630  150.3375  143.8286 C   0  0  0  0  0  0  0  0  0  0  0  0
  137.6037  148.9501  138.8616 C   0  0  0  0  0  0  0  0  0  0  0  0
  136.4483  149.6748  141.6146 N   0  0  0  0  0  0  0  0  0  0  0  0
  136.5467  149.2472  140.4993 C   0  0  0  0  0  0  0  0  0  0  0  0
  137.2539  151.3355  144.7910 C   0  0  0  0  0  0  0  0  0  0  0  0
  137.1772  150.8820  146.0011 O   0  0  0  0  0  0  0  0  0  0  0  0
  1  2  1  0
  2  3  1  0
  2  4  2  0
  4  5  1  0
  5  6  1  0
  5  7  2  0
  7  8  1  0
  3  9  1  0
  7 10  1  0
  3 11  2  0
 10 11  2  0
  6 12  1  0
  8 12  1  0
 12 13  1  0
M  END
$$$$

     RDKit          3D

 13 14  0  0  0  0  0  0  0  0999 V2000
  139.0001  149.7637  140.3651 C   0  0  0  0  0  0  0  0  0  0  0  0
  138.7140  149.5447  139.1253 C   0  0  0  0  0  0  0  0  0  0  0  0
  138.1593  150.1004  141.2813 C   0  0  0  0  0  0  0  0  0  0  0  0
  137.3241  149.5797  138.6751 C   0  0  0  0  0  0  0  0  0  0  0  0
  136.4644  149.5491  139.6303 C   0  0  0  0  0  0  0  0  0  0  0  0
  138.5755  150.4940  142.6471 C   0  0  0  0  0  0  0  0  0  0  0  0
  135.0085  149.6106  139.4557 O   0  0  0  0  0  0  0  0  0  0  0  0
  137.6846  150.8385  143.6636 C   0  0  0  0  0  0  0  0  0  0  0  0
  136.4359  150.7714  143.2617 C   0  0  0  0  0  0  0  0  0  0  0  0
  135.4691  151.2002  144.3152 C   0  0  0  0  0  0  0  0  0  0  0  0
  136.7424  149.9353  141.0282 C   0  0  0  0  0  0  0  0  0  0  0  0
  135.6577  150.2269  141.8899 C   0  0  0  0  0  0  0  0  0  0  0  0
  135.2801  150.6302  145.4371 C   0  0  0  0  0  0  0  0  0  0  0  0
  1  2  2  0
  1  3  1  0
  2  4  1  0
  4  5  2  0
  3  6  1  0
  5  7  1  0
  6  8  2  0
  8  9  1  0
  9 10  1  0
  3 11  2  0
  5 11  1  0
  9 12  2  0
 11 12  1  0
 10 13  1  0
M  END
$$$$

     RDKit          3D

 13 14  0  0  0  0  0  0  0  0999 V2000
  139.3443  149.9938  140.5872 C   0  0  0  0  0  0  0  0  0  0  0  0
  138.9756  149.9372  139.3587 C   0  0  0  0  0  0  0  0  0  0  0  0
  138.5880  150.0764  141.6359 C   0  0  0  0  0  0  0  0  0  0  0  0
  137.2185  149.9023  141.8334 C   0  0  0  0  0  0  0  0  0  0  0  0
  136.5002  149.8297  140.5761 C   0  0  0  0  0  0  0  0  0  0  0  0
  139.1863  150.3537  143.1491 C   0  0  0  0  0  0  0  0  0  0  0  0
  138.2367  150.9497  144.0909 C   0  0  0  0  0  0  0  0  0  0  0  0
  136.9516  150.8955  143.8600 C   0  0  0  0  0  0  0  0  0  0  0  0
  139.8797  149.9829  138.2590 C   0  0  0  0  0  0  0  0  0  0  0  0
  136.9053  149.6532  139.3540 C   0  0  0  0  0  0  0  0  0  0  0  0
  136.2694  150.4291  142.9642 C   0  0  0  0  0  0  0  0  0  0  0  0
  137.7559  149.6175  138.7813 C   0  0  0  0  0  0  0  0  0  0  0  0
  136.0035  151.6706  145.2637 C   0  0  0  0  0  0  0  0  0  0  0  0
  1  2  2  0
  1  3  1  0
  3  4  1  0
  4  5  2  0
  3  6  1  0
  6  7  2  0
  7  8  1  0
  2  9  1  0
  5 10  1  0
  4 11  1  0
  8 11  2  0
  2 12  1  0
 10 12  2  0
  8 13  1  0
M  END
$$$$

     RDKit          3D

 13 14  0  0  0  0  0  0  0  0999 V2000
  138.7088  151.1469  142.6270 C   0  0  0  0  0  0  0  0  0  0  0  0
  138.5262  151.9374  143.5115 C   0  0  0  0  0  0  0  0  0  0  0  0
  137.3922  151.8105  144.0744 C   0  0  0  0  0  0  0  0  0  0  0  0
  136.5951  150.6201  143.9738 C   0  0  0  0  0  0  0  0  0  0  0  0
  137.9799  149.9622  142.2560 C   0  0  0  0  0  0  0  0  0  0  0  0
  136.5087  152.7504  145.0878 C   0  0  0  0  0  0  0  0  0  0  0  0
  135.4530  152.3058  145.6999 C   0  0  0  0  0  0  0  0  0  0  0  0
  135.4658  150.4722  144.8138 C   0  0  0  0  0  0  0  0  0  0  0  0
  134.7566  151.2251  145.5923 C   0  0  0  0  0  0  0  0  0  0  0  0
  136.9285  149.7387  143.0366 N   0  0  0  0  0  0  0  0  0  0  0  0
  140.0232  151.3105  141.7213 C   0  0  0  0  0  0  0  0  0  0  0  0
  140.1234  150.5921  140.4923 C   0  0  0  0  0  0  0  0  0  0  0  0
  140.2078  150.8321  139.3476 C   0  0  0  0  0  0  0  0  0  0  0  0
  1  2  1  0
  2  3  2  0
  3  4  1  0
  1  5  2  0
  3  6  1  0
  6  7  1  0
  4  8  1  0
  7  9  2  0
  8  9  2  0
  4 10  2  0
  5 10  1  0
  1 11  1  0
 11 12  2  3
 12 13  1  0
M  END
$$$$

     RDKit          3D

 13 13  0  0  0  0  0  0  0  0999 V2000
  138.9700  151.3142  142.5680 C   0  0  0  0  0  0  0  0  0  0  0  0
  138.6028  152.0888  143.2649 C   0  0  0  0  0  0  0  0  0  0  0  0
  137.4885  151.7627  144.1910 C   0  0  0  0  0  0  0  0  0  0  0  0
  137.1685  150.4112  144.2718 C   0  0  0  0  0  0  0  0  0  0  0  0
  136.7824  152.6364  145.0888 C   0  0  0  0  0  0  0  0  0  0  0  0
  138.5870  149.8397  142.4014 C   0  0  0  0  0  0  0  0  0  0  0  0
  137.0923  153.8621  145.1626 C   0  0  0  0  0  0  0  0  0  0  0  0
  135.6389  152.2000  145.4751 C   0  0  0  0  0  0  0  0  0  0  0  0
  134.6874  153.0288  146.0279 C   0  0  0  0  0  0  0  0  0  0  0  0
  139.0878  148.9848  141.5148 C   0  0  0  0  0  0  0  0  0  0  0  0
  139.3752  149.6459  140.2361 C   0  0  0  0  0  0  0  0  0  0  0  0
  137.6259  149.4176  143.4434 N   0  0  0  0  0  0  0  0  0  0  0  0
  139.8208  149.1269  139.1820 C   0  0  0  0  0  0  0  0  0  0  0  0
  1  2  1  0
  2  3  2  0
  3  4  1  0
  3  5  1  0
  1  6  2  0
  5  7  1  0
  5  8  2  3
  8  9  1  0
  6 10  1  0
 10 11  1  0
  4 12  2  0
  6 12  1  0
 11 13  1  0
M  END
$$$$

     RDKit          3D

 13 14  0  0  0  0  0  0  0  0999 V2000
  140.3043  150.2153  139.4787 Cl  0  0  0  0  0  0  0  0  0  0  0  0
  138.6777  150.1901  140.5340 C   0  0  0  0  0  0  0  0  0  0  0  0
  137.6379  149.3864  140.0971 C   0  0  0  0  0  0  0  0  0  0  0  0
  138.7740  150.9330  141.6513 C   0  0  0  0  0  0  0  0  0  0  0  0
  137.6926  150.8816  142.5542 C   0  0  0  0  0  0  0  0  0  0  0  0
  137.6662  148.8824  138.7129 C   0  0  0  0  0  0  0  0  0  0  0  0
  136.5363  150.1575  142.2067 C   0  0  0  0  0  0  0  0  0  0  0  0
  135.4068  150.3077  143.1036 C   0  0  0  0  0  0  0  0  0  0  0  0
  136.3677  149.5159  140.9264 C   0  0  0  0  0  0  0  0  0  0  0  0
  137.7685  151.4242  144.0020 C   0  0  0  0  0  0  0  0  0  0  0  0
  136.7273  151.3652  144.7455 C   0  0  0  0  0  0  0  0  0  0  0  0
  136.8897  151.9537  146.1472 C   0  0  0  0  0  0  0  0  0  0  0  0
  135.6131  150.9697  144.4232 C   0  0  0  0  0  0  0  0  0  0  0  0
  1  2  1  0
  2  3  1  0
  2  4  2  0
  4  5  1  0
  3  6  1  0
  5  7  2  0
  7  8  1  0
  3  9  2  0
  7  9  1  0
  5 10  1  0
 10 11  2  0
 11 12  1  0
  8 13  2  0
 11 13  1  0
M  END
$$$$

     RDKit          3D

 13 14  0  0  0  0  0  0  0  0999 V2000
  138.7088  151.1469  142.6270 C   0  0  0  0  0  0  0  0  0  0  0  0
  138.5262  151.9374  143.5115 C   0  0  0  0  0  0  0  0  0  0  0  0
  137.3824  151.6595  144.3968 C   0  0  0  0  0  0  0  0  0  0  0  0
  139.6611  150.9772  141.6901 C   0  0  0  0  0  0  0  0  0  0  0  0
  136.7221  150.4806  143.9608 C   0  0  0  0  0  0  0  0  0  0  0  0
  139.3791  150.7043  140.2857 C   0  0  0  0  0  0  0  0  0  0  0  0
  138.0794  150.1982  140.1257 C   0  0  0  0  0  0  0  0  0  0  0  0
  137.7206  149.7514  138.7664 C   0  0  0  0  0  0  0  0  0  0  0  0
  137.1659  150.0380  141.2095 C   0  0  0  0  0  0  0  0  0  0  0  0
  135.8987  149.4764  140.9824 C   0  0  0  0  0  0  0  0  0  0  0  0
  137.4484  150.4243  142.4459 C   0  0  0  0  0  0  0  0  0  0  0  0
  136.9857  152.2639  145.6140 C   0  0  0  0  0  0  0  0  0  0  0  0
  135.6783  152.1706  146.0134 C   0  0  0  0  0  0  0  0  0  0  0  0
  1  2  1  0
  2  3  2  0
  1  4  1  0
  3  5  1  0
  4  6  2  0
  6  7  1  0
  7  8  1  0
  7  9  2  0
  9 10  1  0
  1 11  2  0
  5 11  1  0
  9 11  1  0
  3 12  1  0
 12 13  1  0
M  END
$$$$

     RDKit          3D

 13 14  0  0  0  0  0  0  0  0999 V2000
  139.3443  149.9938  140.5872 C   0  0  0  0  0  0  0  0  0  0  0  0
  138.9756  149.9372  139.3587 C   0  0  0  0  0  0  0  0  0  0  0  0
  138.5880  150.0764  141.6359 C   0  0  0  0  0  0  0  0  0  0  0  0
  137.2185  149.9023  141.8334 C   0  0  0  0  0  0  0  0  0  0  0  0
  136.5002  149.8297  140.5761 C   0  0  0  0  0  0  0  0  0  0  0  0
  139.2084  150.3134  143.0871 C   0  0  0  0  0  0  0  0  0  0  0  0
  138.4198  151.1093  143.8825 C   0  0  0  0  0  0  0  0  0  0  0  0
  137.1064  151.1415  143.8454 C   0  0  0  0  0  0  0  0  0  0  0  0
  137.2137  149.7443  139.2566 C   0  0  0  0  0  0  0  0  0  0  0  0
  136.3830  151.6743  144.9981 C   0  0  0  0  0  0  0  0  0  0  0  0
  136.4140  150.4406  142.8142 C   0  0  0  0  0  0  0  0  0  0  0  0
  135.0115  151.6038  145.0524 C   0  0  0  0  0  0  0  0  0  0  0  0
  134.2342  152.3026  146.1107 C   0  0  0  0  0  0  0  0  0  0  0  0
  1  2  2  0
  1  3  1  0
  3  4  1  0
  4  5  2  0
  3  6  1  0
  6  7  2  0
  7  8  1  0
  2  9  1  0
  5  9  1  0
  8 10  1  0
  4 11  1  0
  8 11  2  0
 10 12  2  3
 12 13  1  0
M  END
$$$$

     RDKit          3D

 13 13  0  0  0  0  0  0  0  0999 V2000
  138.7241  151.5757  143.3192 C   0  0  0  0  0  0  0  0  0  0  0  0
  137.9190  152.3259  143.7537 C   0  0  0  0  0  0  0  0  0  0  0  0
  136.7519  151.8077  144.4387 C   0  0  0  0  0  0  0  0  0  0  0  0
  138.5728  150.7614  142.3615 C   0  0  0  0  0  0  0  0  0  0  0  0
  136.5049  150.5076  144.1699 C   0  0  0  0  0  0  0  0  0  0  0  0
  139.5488  150.5139  141.3215 C   0  0  0  0  0  0  0  0  0  0  0  0
  137.3929  149.9380  142.5382 C   0  0  0  0  0  0  0  0  0  0  0  0
  135.8263  152.3549  145.3436 C   0  0  0  0  0  0  0  0  0  0  0  0
  139.2866  149.8943  140.1301 C   0  0  0  0  0  0  0  0  0  0  0  0
  134.9128  151.7283  145.9967 C   0  0  0  0  0  0  0  0  0  0  0  0
  135.8575  153.7608  145.4969 C   0  0  0  0  0  0  0  0  0  0  0  0
  138.1614  149.4222  139.8048 C   0  0  0  0  0  0  0  0  0  0  0  0
  140.3636  149.8663  139.1664 C   0  0  0  0  0  0  0  0  0  0  0  0
  1  2  1  0
  2  3  2  0
  1  4  2  0
  3  5  1  0
  4  6  1  0
  4  7  1  0
  5  7  2  0
  3  8  1  0
  6  9  1  0
  8 10  1  0
  8 11  2  0
  9 12  2  0
  9 13  1  0
M  END
$$$$

     RDKit          3D

 14 15  0  0  0  0  0  0  0  0999 V2000
  140.3043  150.2153  139.4787 Cl  0  0  0  0  0  0  0  0  0  0  0  0
  138.6777  150.1901  140.5340 C   0  0  0  0  0  0  0  0  0  0  0  0
  137.6379  149.3864  140.0971 C   0  0  0  0  0  0  0  0  0  0  0  0
  138.7740  150.9330  141.6513 C   0  0  0  0  0  0  0  0  0  0  0  0
  137.6926  150.8816  142.5542 C   0  0  0  0  0  0  0  0  0  0  0  0
  137.8475  151.5161  143.9010 C   0  0  0  0  0  0  0  0  0  0  0  0
  136.6428  150.1161  142.0733 C   0  0  0  0  0  0  0  0  0  0  0  0
  138.8541  152.0576  144.3014 O   0  0  0  0  0  0  0  0  0  0  0  0
  135.3998  150.2894  142.9437 C   0  0  0  0  0  0  0  0  0  0  0  0
  137.6786  148.7646  138.8686 C   0  0  0  0  0  0  0  0  0  0  0  0
  136.8715  151.3741  144.5838 N   0  0  0  0  0  0  0  0  0  0  0  0
  135.6082  150.8840  144.1401 C   0  0  0  0  0  0  0  0  0  0  0  0
  136.9278  151.6893  145.9709 C   0  0  0  0  0  0  0  0  0  0  0  0
  136.4750  149.5110  140.9402 C   0  0  0  0  0  0  0  0  0  0  0  0
  1  2  1  0
  2  3  1  0
  2  4  2  0
  4  5  1  0
  5  6  1  0
  5  7  2  0
  6  8  2  0
  7  9  1  0
  3 10  1  0
  6 11  1  0
  9 12  1  0
 11 12  1  0
 11 13  1  0
  3 14  2  0
  7 14  1  0
M  END
$$$$

     RDKit          3D

 14 15  0  0  0  0  0  0  0  0999 V2000
  138.9700  151.3142  142.5680 C   0  0  0  0  0  0  0  0  0  0  0  0
  138.6028  152.0888  143.2649 C   0  0  0  0  0  0  0  0  0  0  0  0
  137.4885  151.7627  144.1910 C   0  0  0  0  0  0  0  0  0  0  0  0
  139.9946  151.3890  141.4262 C   0  0  0  0  0  0  0  0  0  0  0  0
  137.1413  150.3696  144.0327 C   0  0  0  0  0  0  0  0  0  0  0  0
  138.4285  149.9931  142.3915 C   0  0  0  0  0  0  0  0  0  0  0  0
  136.7928  152.5100  145.0952 C   0  0  0  0  0  0  0  0  0  0  0  0
  137.0879  153.7796  145.2301 C   0  0  0  0  0  0  0  0  0  0  0  0
  135.6154  152.0446  145.6903 C   0  0  0  0  0  0  0  0  0  0  0  0
  134.7778  152.8278  146.2285 C   0  0  0  0  0  0  0  0  0  0  0  0
  136.2566  149.9922  145.1402 C   0  0  0  0  0  0  0  0  0  0  0  0
  135.5355  150.6558  145.7230 C   0  0  0  0  0  0  0  0  0  0  0  0
  137.6327  149.5381  143.2123 N   0  0  0  0  0  0  0  0  0  0  0  0
  139.8166  150.8371  140.2549 C   0  0  0  0  0  0  0  0  0  0  0  0
  1  2  1  0
  2  3  2  0
  1  4  1  0
  3  5  1  0
  1  6  2  0
  3  7  1  0
  7  8  1  0
  7  9  2  0
  9 10  1  0
  5 11  1  0
  9 12  1  0
 11 12  2  0
  5 13  2  0
  6 13  1  0
  4 14  1  0
M  END
$$$$

     RDKit          3D

 14 15  0  0  0  0  0  0  0  0999 V2000
  139.2617  151.0924  142.4042 C   0  0  0  0  0  0  0  0  0  0  0  0
  138.8616  152.1308  142.9030 C   0  0  0  0  0  0  0  0  0  0  0  0
  137.7833  151.8925  143.8931 C   0  0  0  0  0  0  0  0  0  0  0  0
  137.3594  150.5408  144.0624 C   0  0  0  0  0  0  0  0  0  0  0  0
  136.3237  150.4660  145.1229 C   0  0  0  0  0  0  0  0  0  0  0  0
  139.2662  149.7548  142.8052 C   0  0  0  0  0  0  0  0  0  0  0  0
  139.9773  151.1303  141.1428 C   0  0  0  0  0  0  0  0  0  0  0  0
  138.1349  149.4647  143.7648 C   0  0  0  0  0  0  0  0  0  0  0  0
  135.7539  151.6085  145.3587 C   0  0  0  0  0  0  0  0  0  0  0  0
  137.1873  152.9690  144.5737 C   0  0  0  0  0  0  0  0  0  0  0  0
  136.1508  152.8855  145.2968 C   0  0  0  0  0  0  0  0  0  0  0  0
  139.9765  150.6255  140.1292 C   0  0  0  0  0  0  0  0  0  0  0  0
  141.0297  149.9246  139.7387 C   0  0  0  0  0  0  0  0  0  0  0  0
  135.5112  153.9763  145.7113 C   0  0  0  0  0  0  0  0  0  0  0  0
  1  2  1  0
  2  3  2  0
  3  4  1  0
  4  5  2  0
  1  6  1  0
  1  7  2  3
  4  8  1  0
  6  8  2  0
  5  9  1  0
  3 10  1  0
  9 11  1  0
 10 11  1  0
  7 12  1  0
 12 13  1  0
 11 14  2  0
M  END
$$$$

     RDKit          3D

 14 15  0  0  0  0  0  0  0  0999 V2000
  139.3443  149.9938  140.5872 C   0  0  0  0  0  0  0  0  0  0  0  0
  138.9756  149.9372  139.3587 C   0  0  0  0  0  0  0  0  0  0  0  0
  138.5880  150.0764  141.6359 C   0  0  0  0  0  0  0  0  0  0  0  0
  137.6059  149.8647  139.0257 C   0  0  0  0  0  0  0  0  0  0  0  0
  136.6735  149.8721  140.1553 C   0  0  0  0  0  0  0  0  0  0  0  0
  139.1026  150.2605  143.0402 C   0  0  0  0  0  0  0  0  0  0  0  0
  138.4732  151.2252  143.7767 C   0  0  0  0  0  0  0  0  0  0  0  0
  137.2533  151.6738  143.3905 C   0  0  0  0  0  0  0  0  0  0  0  0
  135.2603  149.9537  139.9733 C   0  0  0  0  0  0  0  0  0  0  0  0
  137.2815  150.2518  141.4769 C   0  0  0  0  0  0  0  0  0  0  0  0
  136.5337  152.4191  144.3953 C   0  0  0  0  0  0  0  0  0  0  0  0
  136.5654  151.1566  142.3375 C   0  0  0  0  0  0  0  0  0  0  0  0
  135.4031  152.0137  145.0352 C   0  0  0  0  0  0  0  0  0  0  0  0
  135.3912  150.8862  145.6377 C   0  0  0  0  0  0  0  0  0  0  0  0
  1  2  2  0
  1  3  1  0
  2  4  1  0
  4  5  2  0
  3  6  1  0
  6  7  2  0
  7  8  1  0
  5  9  1  0
  3 10  2  0
  5 10  1  0
  8 11  1  0
  8 12  2  0
 10 12  1  0
 11 13  1  0
 13 14  1  0
M  END
$$$$

     RDKit          3D

 14 15  0  0  0  0  0  0  0  0999 V2000
  139.3443  149.9938  140.5872 C   0  0  0  0  0  0  0  0  0  0  0  0
  138.9756  149.9372  139.3587 C   0  0  0  0  0  0  0  0  0  0  0  0
  138.5880  150.0764  141.6359 C   0  0  0  0  0  0  0  0  0  0  0  0
  137.2185  149.9023  141.8334 C   0  0  0  0  0  0  0  0  0  0  0  0
  136.5002  149.8297  140.5761 C   0  0  0  0  0  0  0  0  0  0  0  0
  139.2084  150.3134  143.0871 C   0  0  0  0  0  0  0  0  0  0  0  0
  138.4198  151.1093  143.8825 C   0  0  0  0  0  0  0  0  0  0  0  0
  137.1064  151.1415  143.8454 C   0  0  0  0  0  0  0  0  0  0  0  0
  135.1020  149.7265  140.4161 C   0  0  0  0  0  0  0  0  0  0  0  0
  139.6884  149.8927  138.1665 C   0  0  0  0  0  0  0  0  0  0  0  0
  136.4504  150.4815  142.9246 C   0  0  0  0  0  0  0  0  0  0  0  0
  137.3266  149.6404  139.4018 C   0  0  0  0  0  0  0  0  0  0  0  0
  136.3165  151.8725  145.0750 C   0  0  0  0  0  0  0  0  0  0  0  0
  135.0307  151.5205  145.2375 C   0  0  0  0  0  0  0  0  0  0  0  0
  1  2  2  0
  1  3  1  0
  3  4  1  0
  4  5  2  0
  3  6  1  0
  6  7  2  0
  7  8  1  0
  5  9  1  0
  2 10  1  0
  4 11  1  0
  8 11  2  0
  2 12  1  0
  5 12  1  0
  8 13  1  0
 13 14  2  0
M  END
$$$$

     RDKit          3D

 14 15  0  0  0  0  0  0  0  0999 V2000
  140.3043  150.2153  139.4787 Cl  0  0  0  0  0  0  0  0  0  0  0  0
  138.6777  150.1901  140.5340 C   0  0  0  0  0  0  0  0  0  0  0  0
  137.6379  149.3864  140.0971 C   0  0  0  0  0  0  0  0  0  0  0  0
  138.7740  150.9330  141.6513 C   0  0  0  0  0  0  0  0  0  0  0  0
  137.6926  150.8816  142.5542 C   0  0  0  0  0  0  0  0  0  0  0  0
  137.8475  151.5161  143.9010 C   0  0  0  0  0  0  0  0  0  0  0  0
  136.6428  150.1161  142.0733 C   0  0  0  0  0  0  0  0  0  0  0  0
  138.8541  152.0576  144.3014 O   0  0  0  0  0  0  0  0  0  0  0  0
  135.3998  150.2894  142.9437 C   0  0  0  0  0  0  0  0  0  0  0  0
  136.8606  151.3563  144.5731 N   0  0  0  0  0  0  0  0  0  0  0  0
  136.9017  151.8330  146.0160 C   0  0  0  0  0  0  0  0  0  0  0  0
  135.4878  150.9283  144.1310 C   0  0  0  0  0  0  0  0  0  0  0  0
  137.6361  148.7806  138.9086 C   0  0  0  0  0  0  0  0  0  0  0  0
  136.4164  149.5504  140.8553 C   0  0  0  0  0  0  0  0  0  0  0  0
  1  2  1  0
  2  3  1  0
  2  4  2  0
  4  5  1  0
  5  6  1  0
  5  7  2  0
  6  8  2  0
  7  9  1  0
  6 10  1  0
 10 11  1  0
  9 12  2  0
 10 12  1  0
  3 13  1  0
  3 14  2  0
  7 14  1  0
M  END
$$$$

     RDKit          3D

 14 15  0  0  0  0  0  0  0  0999 V2000
  138.9700  151.3142  142.5680 C   0  0  0  0  0  0  0  0  0  0  0  0
  138.6028  152.0888  143.2649 C   0  0  0  0  0  0  0  0  0  0  0  0
  137.4885  151.7627  144.1910 C   0  0  0  0  0  0  0  0  0  0  0  0
  137.1685  150.4112  144.2718 C   0  0  0  0  0  0  0  0  0  0  0  0
  136.7824  152.6364  145.0888 C   0  0  0  0  0  0  0  0  0  0  0  0
  138.5870  149.8397  142.4014 C   0  0  0  0  0  0  0  0  0  0  0  0
  137.0923  153.8621  145.1626 C   0  0  0  0  0  0  0  0  0  0  0  0
  135.6389  152.2000  145.4751 C   0  0  0  0  0  0  0  0  0  0  0  0
  136.2937  149.9824  145.2586 C   0  0  0  0  0  0  0  0  0  0  0  0
  139.2032  149.0414  141.4563 C   0  0  0  0  0  0  0  0  0  0  0  0
  137.6762  149.3616  143.3832 C   0  0  0  0  0  0  0  0  0  0  0  0
  136.4049  148.7266  145.7891 O   0  0  0  0  0  0  0  0  0  0  0  0
  134.7411  153.2335  146.0950 C   0  0  0  0  0  0  0  0  0  0  0  0
  135.3046  150.8672  145.7639 C   0  0  0  0  0  0  0  0  0  0  0  0
  1  2  1  0
  2  3  2  0
  3  4  1  0
  3  5  1  0
  1  6  2  0
  5  7  1  0
  5  8  2  0
  4  9  1  0
  6 10  1  0
  4 11  2  0
  6 11  1  0
  9 12  1  0
  8 13  1  0
  8 14  1  0
  9 14  2  0
M  END
$$$$

     RDKit          3D

 14 15  0  0  0  0  0  0  0  0999 V2000
  139.3443  149.9938  140.5872 C   0  0  0  0  0  0  0  0  0  0  0  0
  138.9756  149.9372  139.3587 C   0  0  0  0  0  0  0  0  0  0  0  0
  138.5880  150.0764  141.6359 C   0  0  0  0  0  0  0  0  0  0  0  0
  137.2185  149.9023  141.8334 C   0  0  0  0  0  0  0  0  0  0  0  0
  136.5002  149.8297  140.5761 C   0  0  0  0  0  0  0  0  0  0  0  0
  139.1863  150.3537  143.1491 C   0  0  0  0  0  0  0  0  0  0  0  0
  138.2367  150.9497  144.0909 C   0  0  0  0  0  0  0  0  0  0  0  0
  136.9516  150.8955  143.8600 C   0  0  0  0  0  0  0  0  0  0  0  0
  139.8797  149.9829  138.2590 C   0  0  0  0  0  0  0  0  0  0  0  0
  136.1730  151.3676  145.1023 C   0  0  0  0  0  0  0  0  0  0  0  0
  135.0651  152.2528  144.8493 C   0  0  0  0  0  0  0  0  0  0  0  0
  135.0730  149.6771  140.5487 C   0  0  0  0  0  0  0  0  0  0  0  0
  136.3900  150.1082  142.9726 C   0  0  0  0  0  0  0  0  0  0  0  0
  137.2876  149.7343  139.2937 C   0  0  0  0  0  0  0  0  0  0  0  0
  1  2  2  0
  1  3  1  0
  3  4  1  0
  4  5  2  0
  3  6  1  0
  6  7  2  0
  7  8  1  0
  2  9  1  0
  8 10  1  0
 10 11  1  0
  5 12  1  0
  4 13  1  0
  8 13  2  0
  2 14  1  0
  5 14  1  0
M  END
$$$$

     RDKit          3D

 14 15  0  0  0  0  0  0  0  0999 V2000
  139.0001  149.7637  140.3651 C   0  0  0  0  0  0  0  0  0  0  0  0
  138.7140  149.5447  139.1253 C   0  0  0  0  0  0  0  0  0  0  0  0
  138.1593  150.1004  141.2813 C   0  0  0  0  0  0  0  0  0  0  0  0
  137.3241  149.5797  138.6751 C   0  0  0  0  0  0  0  0  0  0  0  0
  136.4644  149.5491  139.6303 C   0  0  0  0  0  0  0  0  0  0  0  0
  138.5755  150.4940  142.6471 C   0  0  0  0  0  0  0  0  0  0  0  0
  135.0085  149.6106  139.4557 O   0  0  0  0  0  0  0  0  0  0  0  0
  137.6846  150.8385  143.6636 C   0  0  0  0  0  0  0  0  0  0  0  0
  136.4359  150.7714  143.2617 C   0  0  0  0  0  0  0  0  0  0  0  0
  135.4691  151.2002  144.3152 C   0  0  0  0  0  0  0  0  0  0  0  0
  136.7284  149.9352  140.9753 C   0  0  0  0  0  0  0  0  0  0  0  0
  135.8542  150.3418  142.1112 C   0  0  0  0  0  0  0  0  0  0  0  0
  135.2603  150.5774  145.4268 C   0  0  0  0  0  0  0  0  0  0  0  0
  136.3143  149.8166  146.0246 C   0  0  0  0  0  0  0  0  0  0  0  0
  1  2  2  0
  1  3  1  0
  2  4  1  0
  4  5  2  0
  3  6  1  0
  5  7  1  0
  6  8  2  0
  8  9  1  0
  9 10  1  0
  3 11  2  0
  5 11  1  0
  9 12  2  0
 11 12  1  0
 10 13  2  3
 13 14  1  0
M  END
$$$$

     RDKit          3D

 14 14  0  0  0  0  0  0  0  0999 V2000
  140.3043  150.2153  139.4787 Cl  0  0  0  0  0  0  0  0  0  0  0  0
  138.6777  150.1901  140.5340 C   0  0  0  0  0  0  0  0  0  0  0  0
  137.6379  149.3864  140.0971 C   0  0  0  0  0  0  0  0  0  0  0  0
  138.7740  150.9330  141.6513 C   0  0  0  0  0  0  0  0  0  0  0  0
  138.1503  150.9121  142.4451 C   0  0  0  0  0  0  0  0  0  0  0  0
  136.8417  150.0645  142.3201 C   0  0  0  0  0  0  0  0  0  0  0  0
  135.8231  150.1830  143.3116 C   0  0  0  0  0  0  0  0  0  0  0  0
  137.4901  148.8589  138.8804 C   0  0  0  0  0  0  0  0  0  0  0  0
  136.5318  149.5224  141.1352 C   0  0  0  0  0  0  0  0  0  0  0  0
  136.2964  150.4602  144.5800 C   0  0  0  0  0  0  0  0  0  0  0  0
  135.5128  150.6248  145.7911 C   0  0  0  0  0  0  0  0  0  0  0  0
  135.1665  151.9244  146.0992 C   0  0  0  0  0  0  0  0  0  0  0  0
  135.5561  152.9345  145.5846 O   0  0  0  0  0  0  0  0  0  0  0  0
  134.0229  151.8826  147.1856 C   0  0  0  0  0  0  0  0  0  0  0  0
  1  2  1  0
  2  3  1  0
  2  4  2  0
  4  5  1  0
  5  6  2  0
  6  7  1  0
  3  8  1  0
  3  9  2  0
  6  9  1  0
  7 10  2  3
 10 11  1  0
 11 12  1  0
 12 13  2  0
 12 14  1  0
M  END
$$$$

     RDKit          3D

 14 15  0  0  0  0  0  0  0  0999 V2000
  139.3443  149.9938  140.5872 C   0  0  0  0  0  0  0  0  0  0  0  0
  138.9756  149.9372  139.3587 C   0  0  0  0  0  0  0  0  0  0  0  0
  138.5880  150.0764  141.6359 C   0  0  0  0  0  0  0  0  0  0  0  0
  137.2185  149.9023  141.8334 C   0  0  0  0  0  0  0  0  0  0  0  0
  136.5002  149.8297  140.5761 C   0  0  0  0  0  0  0  0  0  0  0  0
  139.1863  150.3537  143.1491 C   0  0  0  0  0  0  0  0  0  0  0  0
  138.2367  150.9497  144.0909 C   0  0  0  0  0  0  0  0  0  0  0  0
  136.9516  150.8955  143.8600 C   0  0  0  0  0  0  0  0  0  0  0  0
  139.8797  149.9829  138.2590 C   0  0  0  0  0  0  0  0  0  0  0  0
  136.1730  151.3676  145.1023 C   0  0  0  0  0  0  0  0  0  0  0  0
  135.0651  152.2528  144.8493 C   0  0  0  0  0  0  0  0  0  0  0  0
  135.0730  149.6771  140.5487 C   0  0  0  0  0  0  0  0  0  0  0  0
  136.4971  150.2619  142.7726 N   0  0  0  0  0  0  0  0  0  0  0  0
  137.3243  149.6719  139.3911 C   0  0  0  0  0  0  0  0  0  0  0  0
  1  2  2  0
  1  3  1  0
  3  4  1  0
  4  5  2  0
  3  6  1  0
  6  7  2  0
  7  8  1  0
  2  9  1  0
  8 10  1  0
 10 11  1  0
  5 12  1  0
  4 13  1  0
  8 13  2  0
  2 14  1  0
  5 14  1  0
M  END
$$$$

     RDKit          3D

 14 15  0  0  0  0  0  0  0  0999 V2000
  138.9700  151.3142  142.5680 C   0  0  0  0  0  0  0  0  0  0  0  0
  138.6028  152.0888  143.2649 C   0  0  0  0  0  0  0  0  0  0  0  0
  139.7534  151.4391  141.3513 C   0  0  0  0  0  0  0  0  0  0  0  0
  137.5434  151.8486  144.3752 C   0  0  0  0  0  0  0  0  0  0  0  0
  137.4057  150.5855  144.6897 C   0  0  0  0  0  0  0  0  0  0  0  0
  139.5846  150.4504  140.3545 C   0  0  0  0  0  0  0  0  0  0  0  0
  138.6911  149.4437  140.7439 C   0  0  0  0  0  0  0  0  0  0  0  0
  137.7600  149.6564  141.7147 C   0  0  0  0  0  0  0  0  0  0  0  0
  140.3875  150.5132  139.1360 C   0  0  0  0  0  0  0  0  0  0  0  0
  138.0573  150.4024  142.7870 C   0  0  0  0  0  0  0  0  0  0  0  0
  136.8643  152.8082  144.9113 C   0  0  0  0  0  0  0  0  0  0  0  0
  136.8258  150.4049  146.0362 C   0  0  0  0  0  0  0  0  0  0  0  0
  136.0561  152.7098  145.7226 C   0  0  0  0  0  0  0  0  0  0  0  0
  135.8890  151.4366  146.4670 C   0  0  0  0  0  0  0  0  0  0  0  0
  1  2  1  0
  1  3  1  0
  2  4  1  0
  4  5  2  0
  3  6  2  0
  6  7  1  0
  7  8  2  0
  6  9  1  0
  1 10  2  0
  8 10  1  0
  4 11  1  0
  5 12  1  0
 11 13  2  0
 12 14  2  0
 13 14  1  0
M  END
$$$$

     RDKit          3D

 14 15  0  0  0  0  0  0  0  0999 V2000
  139.3443  149.9938  140.5872 C   0  0  0  0  0  0  0  0  0  0  0  0
  138.9756  149.9372  139.3587 C   0  0  0  0  0  0  0  0  0  0  0  0
  138.5880  150.0764  141.6359 C   0  0  0  0  0  0  0  0  0  0  0  0
  137.2185  149.9023  141.8334 C   0  0  0  0  0  0  0  0  0  0  0  0
  136.5002  149.8297  140.5761 C   0  0  0  0  0  0  0  0  0  0  0  0
  139.1863  150.3537  143.1491 C   0  0  0  0  0  0  0  0  0  0  0  0
  138.2367  150.9497  144.0909 C   0  0  0  0  0  0  0  0  0  0  0  0
  136.9516  150.8955  143.8600 C   0  0  0  0  0  0  0  0  0  0  0  0
  139.8797  149.9829  138.2590 C   0  0  0  0  0  0  0  0  0  0  0  0
  136.1730  151.3676  145.1023 C   0  0  0  0  0  0  0  0  0  0  0  0
  136.5297  151.3892  146.3542 C   0  0  0  0  0  0  0  0  0  0  0  0
  137.4960  149.7421  139.1696 C   0  0  0  0  0  0  0  0  0  0  0  0
  136.2710  150.3484  142.7917 C   0  0  0  0  0  0  0  0  0  0  0  0
  134.8775  151.9292  144.7678 C   0  0  0  0  0  0  0  0  0  0  0  0
  1  2  2  0
  1  3  1  0
  3  4  1  0
  4  5  2  0
  3  6  1  0
  6  7  2  0
  7  8  1  0
  2  9  1  0
  8 10  1  0
 10 11  2  0
  2 12  1  0
  5 12  1  0
  4 13  1  0
  8 13  2  0
 10 14  1  0
M  END
$$$$

     RDKit          3D

 14 15  0  0  0  0  0  0  0  0999 V2000
  139.2617  151.0924  142.4042 C   0  0  0  0  0  0  0  0  0  0  0  0
  138.8616  152.1308  142.9030 C   0  0  0  0  0  0  0  0  0  0  0  0
  137.9129  151.7989  143.7815 C   0  0  0  0  0  0  0  0  0  0  0  0
  138.8296  150.4005  141.6037 C   0  0  0  0  0  0  0  0  0  0  0  0
  137.2795  150.5116  143.6586 C   0  0  0  0  0  0  0  0  0  0  0  0
  139.3647  149.8221  140.3408 C   0  0  0  0  0  0  0  0  0  0  0  0
  140.5310  149.7146  139.9599 C   0  0  0  0  0  0  0  0  0  0  0  0
  137.6249  149.7958  142.2705 C   0  0  0  0  0  0  0  0  0  0  0  0
  137.2387  152.6124  144.9345 C   0  0  0  0  0  0  0  0  0  0  0  0
  138.3382  149.5649  139.4338 C   0  0  0  0  0  0  0  0  0  0  0  0
  138.7066  149.4673  138.0700 C   0  0  0  0  0  0  0  0  0  0  0  0
  140.8934  149.5019  138.6547 C   0  0  0  0  0  0  0  0  0  0  0  0
  137.6172  149.3040  137.0987 O   0  0  0  0  0  0  0  0  0  0  0  0
  140.0223  149.3089  137.6618 C   0  0  0  0  0  0  0  0  0  0  0  0
  1  2  1  0
  2  3  2  0
  1  4  2  0
  3  5  1  0
  4  6  1  0
  6  7  1  0
  4  8  1  0
  5  8  1  0
  3  9  1  0
  6 10  2  0
 10 11  1  0
  7 12  2  0
 11 13  1  0
 11 14  2  0
 12 14  1  0
M  END
$$$$

     RDKit          3D

 14 15  0  0  0  0  0  0  0  0999 V2000
  140.3043  150.2153  139.4787 Cl  0  0  0  0  0  0  0  0  0  0  0  0
  138.6777  150.1901  140.5340 C   0  0  0  0  0  0  0  0  0  0  0  0
  137.6379  149.3864  140.0971 C   0  0  0  0  0  0  0  0  0  0  0  0
  138.7740  150.9330  141.6513 C   0  0  0  0  0  0  0  0  0  0  0  0
  137.6926  150.8816  142.5542 C   0  0  0  0  0  0  0  0  0  0  0  0
  137.8475  151.5161  143.9010 C   0  0  0  0  0  0  0  0  0  0  0  0
  136.6428  150.1161  142.0733 C   0  0  0  0  0  0  0  0  0  0  0  0
  138.8541  152.0576  144.3014 O   0  0  0  0  0  0  0  0  0  0  0  0
  135.3998  150.2894  142.9437 C   0  0  0  0  0  0  0  0  0  0  0  0
  136.8606  151.3563  144.5731 N   0  0  0  0  0  0  0  0  0  0  0  0
  136.9017  151.8330  146.0160 C   0  0  0  0  0  0  0  0  0  0  0  0
  135.5113  150.9144  144.1425 C   0  0  0  0  0  0  0  0  0  0  0  0
  137.6369  148.7805  138.9091 C   0  0  0  0  0  0  0  0  0  0  0  0
  136.4759  149.5456  140.9431 N   0  0  0  0  0  0  0  0  0  0  0  0
  1  2  1  0
  2  3  1  0
  2  4  2  0
  4  5  1  0
  5  6  1  0
  5  7  2  0
  6  8  2  0
  7  9  1  0
  6 10  1  0
 10 11  1  0
  9 12  2  0
 10 12  1  0
  3 13  1  0
  3 14  2  0
  7 14  1  0
M  END
$$$$

     RDKit          3D

 14 15  0  0  0  0  0  0  0  0999 V2000
  138.9700  151.3142  142.5680 C   0  0  0  0  0  0  0  0  0  0  0  0
  138.6028  152.0888  143.2649 C   0  0  0  0  0  0  0  0  0  0  0  0
  137.6613  151.8314  144.0472 C   0  0  0  0  0  0  0  0  0  0  0  0
  136.5817  152.7482  144.5731 C   0  0  0  0  0  0  0  0  0  0  0  0
  135.5891  152.5118  145.5181 C   0  0  0  0  0  0  0  0  0  0  0  0
  135.6197  151.0419  145.8143 C   0  0  0  0  0  0  0  0  0  0  0  0
  139.9622  151.4785  141.3913 C   0  0  0  0  0  0  0  0  0  0  0  0
  137.2345  150.4487  144.6263 C   0  0  0  0  0  0  0  0  0  0  0  0
  138.2721  149.5562  144.1273 C   0  0  0  0  0  0  0  0  0  0  0  0
  134.4975  150.8451  146.9057 C   0  0  0  0  0  0  0  0  0  0  0  0
  136.3347  150.1091  145.4810 C   0  0  0  0  0  0  0  0  0  0  0  0
  139.6824  150.7468  140.2432 C   0  0  0  0  0  0  0  0  0  0  0  0
  140.5599  150.7057  139.1693 C   0  0  0  0  0  0  0  0  0  0  0  0
  138.9049  149.8118  142.9622 C   0  0  0  0  0  0  0  0  0  0  0  0
  1  2  2  0
  2  3  1  0
  3  4  1  0
  4  5  2  0
  5  6  1  0
  1  7  1  0
  3  8  2  0
  8  9  1  0
  6 10  1  0
  6 11  2  0
  8 11  1  0
  7 12  2  3
 12 13  1  0
  1 14  1  0
  9 14  2  0
M  END
$$$$

     RDKit          3D

 14 15  0  0  0  0  0  0  0  0999 V2000
  139.2617  151.0924  142.4042 C   0  0  0  0  0  0  0  0  0  0  0  0
  138.8616  152.1308  142.9030 C   0  0  0  0  0  0  0  0  0  0  0  0
  137.7833  151.8925  143.8931 C   0  0  0  0  0  0  0  0  0  0  0  0
  137.3594  150.5408  144.0624 C   0  0  0  0  0  0  0  0  0  0  0  0
  136.3237  150.4660  145.1229 C   0  0  0  0  0  0  0  0  0  0  0  0
  139.2662  149.7548  142.8052 C   0  0  0  0  0  0  0  0  0  0  0  0
  139.9773  151.1303  141.1428 C   0  0  0  0  0  0  0  0  0  0  0  0
  138.1349  149.4647  143.7648 C   0  0  0  0  0  0  0  0  0  0  0  0
  135.7539  151.6085  145.3587 C   0  0  0  0  0  0  0  0  0  0  0  0
  137.1873  152.9690  144.5737 C   0  0  0  0  0  0  0  0  0  0  0  0
  136.1508  152.8855  145.2968 C   0  0  0  0  0  0  0  0  0  0  0  0
  139.9765  150.6255  140.1292 C   0  0  0  0  0  0  0  0  0  0  0  0
  135.5338  153.8447  145.7935 O   0  0  0  0  0  0  0  0  0  0  0  0
  141.0423  149.9739  139.7135 C   0  0  0  0  0  0  0  0  0  0  0  0
  1  2  1  0
  2  3  2  0
  3  4  1  0
  4  5  2  0
  1  6  1  0
  1  7  2  3
  4  8  1  0
  6  8  2  0
  5  9  1  0
  3 10  1  0
  9 11  1  0
 10 11  1  0
  7 12  1  0
 11 13  2  0
 12 14  2  0
M  END
$$$$

     RDKit          3D

 14 15  0  0  0  0  0  0  0  0999 V2000
  139.3443  149.9938  140.5872 C   0  0  0  0  0  0  0  0  0  0  0  0
  138.9756  149.9372  139.3587 C   0  0  0  0  0  0  0  0  0  0  0  0
  138.5880  150.0764  141.6359 C   0  0  0  0  0  0  0  0  0  0  0  0
  137.2185  149.9023  141.8334 C   0  0  0  0  0  0  0  0  0  0  0  0
  136.5002  149.8297  140.5761 C   0  0  0  0  0  0  0  0  0  0  0  0
  139.1863  150.3537  143.1491 C   0  0  0  0  0  0  0  0  0  0  0  0
  138.2367  150.9497  144.0909 C   0  0  0  0  0  0  0  0  0  0  0  0
  136.9516  150.8955  143.8600 C   0  0  0  0  0  0  0  0  0  0  0  0
  139.8797  149.9829  138.2590 C   0  0  0  0  0  0  0  0  0  0  0  0
  136.1730  151.3676  145.1023 C   0  0  0  0  0  0  0  0  0  0  0  0
  136.9061  149.6773  139.3652 C   0  0  0  0  0  0  0  0  0  0  0  0
  136.3368  150.2588  142.8340 C   0  0  0  0  0  0  0  0  0  0  0  0
  137.7590  149.6382  138.7750 C   0  0  0  0  0  0  0  0  0  0  0  0
  136.5401  151.4755  146.3069 C   0  0  0  0  0  0  0  0  0  0  0  0
  1  2  2  0
  1  3  1  0
  3  4  1  0
  4  5  2  0
  3  6  1  0
  6  7  2  0
  7  8  1  0
  2  9  1  0
  8 10  1  0
  5 11  1  0
  4 12  1  0
  8 12  2  0
  2 13  1  0
 11 13  2  0
 10 14  2  0
M  END
$$$$

     RDKit          3D

 14 15  0  0  0  0  0  0  0  0999 V2000
  139.3443  149.9938  140.5872 C   0  0  0  0  0  0  0  0  0  0  0  0
  138.9756  149.9372  139.3587 C   0  0  0  0  0  0  0  0  0  0  0  0
  138.5880  150.0764  141.6359 C   0  0  0  0  0  0  0  0  0  0  0  0
  137.2185  149.9023  141.8334 C   0  0  0  0  0  0  0  0  0  0  0  0
  136.5002  149.8297  140.5761 C   0  0  0  0  0  0  0  0  0  0  0  0
  139.1863  150.3537  143.1491 C   0  0  0  0  0  0  0  0  0  0  0  0
  138.2367  150.9497  144.0909 C   0  0  0  0  0  0  0  0  0  0  0  0
  136.9516  150.8955  143.8600 C   0  0  0  0  0  0  0  0  0  0  0  0
  139.8797  149.9829  138.2590 C   0  0  0  0  0  0  0  0  0  0  0  0
  136.1730  151.3676  145.1023 C   0  0  0  0  0  0  0  0  0  0  0  0
  136.3505  150.2844  142.8860 C   0  0  0  0  0  0  0  0  0  0  0  0
  137.4853  149.7470  139.2933 C   0  0  0  0  0  0  0  0  0  0  0  0
  136.5396  151.5005  146.3057 C   0  0  0  0  0  0  0  0  0  0  0  0
  135.2256  152.2386  144.9174 C   0  0  0  0  0  0  0  0  0  0  0  0
  1  2  2  0
  1  3  1  0
  3  4  1  0
  4  5  2  0
  3  6  1  0
  6  7  2  0
  7  8  1  0
  2  9  1  0
  8 10  1  0
  4 11  1  0
  8 11  2  0
  2 12  1  0
  5 12  1  0
 10 13  1  0
 10 14  1  0
M  END
$$$$

     RDKit          3D

 14 15  0  0  0  0  0  0  0  0999 V2000
  139.3443  149.9938  140.5872 C   0  0  0  0  0  0  0  0  0  0  0  0
  138.9756  149.9372  139.3587 C   0  0  0  0  0  0  0  0  0  0  0  0
  138.5880  150.0764  141.6359 C   0  0  0  0  0  0  0  0  0  0  0  0
  137.2185  149.9023  141.8334 C   0  0  0  0  0  0  0  0  0  0  0  0
  136.5002  149.8297  140.5761 C   0  0  0  0  0  0  0  0  0  0  0  0
  139.1863  150.3537  143.1491 C   0  0  0  0  0  0  0  0  0  0  0  0
  138.2367  150.9497  144.0909 C   0  0  0  0  0  0  0  0  0  0  0  0
  136.7172  150.4145  143.0633 C   0  0  0  0  0  0  0  0  0  0  0  0
  137.0825  150.7524  144.0792 C   0  0  0  0  0  0  0  0  0  0  0  0
  135.1987  149.6345  140.4584 C   0  0  0  0  0  0  0  0  0  0  0  0
  137.4194  149.6859  139.2775 C   0  0  0  0  0  0  0  0  0  0  0  0
  136.2733  151.3645  145.1778 C   0  0  0  0  0  0  0  0  0  0  0  0
  136.5493  151.5221  146.4421 C   0  0  0  0  0  0  0  0  0  0  0  0
  135.3260  152.0919  144.7422 C   0  0  0  0  0  0  0  0  0  0  0  0
  1  2  2  0
  1  3  1  0
  3  4  1  0
  4  5  2  0
  3  6  1  0
  6  7  2  0
  4  8  1  0
  7  9  1  0
  8  9  2  0
  5 10  1  0
  2 11  1  0
  5 11  1  0
  9 12  1  0
 12 13  1  0
 12 14  2  0
M  END
$$$$

     RDKit          3D

 14 15  0  0  0  0  0  0  0  0999 V2000
  138.9700  151.3142  142.5680 C   0  0  0  0  0  0  0  0  0  0  0  0
  138.6028  152.0888  143.2649 C   0  0  0  0  0  0  0  0  0  0  0  0
  137.4885  151.7627  144.1910 C   0  0  0  0  0  0  0  0  0  0  0  0
  139.9946  151.3890  141.4262 C   0  0  0  0  0  0  0  0  0  0  0  0
  137.1413  150.3696  144.0327 C   0  0  0  0  0  0  0  0  0  0  0  0
  138.4285  149.9931  142.3915 C   0  0  0  0  0  0  0  0  0  0  0  0
  136.7928  152.5100  145.0952 C   0  0  0  0  0  0  0  0  0  0  0  0
  137.0879  153.7796  145.2301 C   0  0  0  0  0  0  0  0  0  0  0  0
  135.6154  152.0446  145.6903 C   0  0  0  0  0  0  0  0  0  0  0  0
  136.2589  150.0102  145.1297 C   0  0  0  0  0  0  0  0  0  0  0  0
  137.5780  149.3857  143.2841 N   0  0  0  0  0  0  0  0  0  0  0  0
  139.7881  150.8598  140.2422 C   0  0  0  0  0  0  0  0  0  0  0  0
  134.8714  153.0431  146.4191 C   0  0  0  0  0  0  0  0  0  0  0  0
  135.1022  150.9489  145.7737 C   0  0  0  0  0  0  0  0  0  0  0  0
  1  2  1  0
  2  3  2  0
  1  4  1  0
  3  5  1  0
  1  6  2  0
  3  7  1  0
  7  8  1  0
  7  9  2  0
  5 10  1  0
  5 11  2  0
  6 11  1  0
  4 12  1  0
  9 13  1  0
  9 14  1  0
 10 14  1  0
M  END
$$$$

     RDKit          3D

 14 15  0  0  0  0  0  0  0  0999 V2000
  138.9700  151.3142  142.5680 C   0  0  0  0  0  0  0  0  0  0  0  0
  138.6028  152.0888  143.2649 C   0  0  0  0  0  0  0  0  0  0  0  0
  137.6613  151.8314  144.0472 C   0  0  0  0  0  0  0  0  0  0  0  0
  136.5817  152.7482  144.5731 C   0  0  0  0  0  0  0  0  0  0  0  0
  135.5891  152.5118  145.5181 C   0  0  0  0  0  0  0  0  0  0  0  0
  135.6197  151.0419  145.8143 C   0  0  0  0  0  0  0  0  0  0  0  0
  139.9622  151.4785  141.3913 C   0  0  0  0  0  0  0  0  0  0  0  0
  137.2345  150.4487  144.6263 C   0  0  0  0  0  0  0  0  0  0  0  0
  138.2721  149.5562  144.1273 C   0  0  0  0  0  0  0  0  0  0  0  0
  134.4975  150.8451  146.9057 C   0  0  0  0  0  0  0  0  0  0  0  0
  139.8028  150.5384  140.2947 C   0  0  0  0  0  0  0  0  0  0  0  0
  139.0060  149.8902  142.9211 C   0  0  0  0  0  0  0  0  0  0  0  0
  136.5264  150.0792  145.2779 N   0  0  0  0  0  0  0  0  0  0  0  0
  140.3318  150.8645  139.0160 C   0  0  0  0  0  0  0  0  0  0  0  0
  1  2  2  0
  2  3  1  0
  3  4  1  0
  4  5  2  0
  5  6  1  0
  1  7  1  0
  3  8  2  0
  8  9  1  0
  6 10  1  0
  7 11  2  3
  1 12  1  0
  9 12  2  0
  6 13  2  0
  8 13  1  0
 11 14  1  0
M  END
$$$$

     RDKit          3D

 14 15  0  0  0  0  0  0  0  0999 V2000
  139.3443  149.9938  140.5872 C   0  0  0  0  0  0  0  0  0  0  0  0
  138.9756  149.9372  139.3587 C   0  0  0  0  0  0  0  0  0  0  0  0
  138.5880  150.0764  141.6359 C   0  0  0  0  0  0  0  0  0  0  0  0
  137.2185  149.9023  141.8334 C   0  0  0  0  0  0  0  0  0  0  0  0
  136.5002  149.8297  140.5761 C   0  0  0  0  0  0  0  0  0  0  0  0
  139.1863  150.3537  143.1491 C   0  0  0  0  0  0  0  0  0  0  0  0
  138.2367  150.9497  144.0909 C   0  0  0  0  0  0  0  0  0  0  0  0
  135.0949  149.7516  140.3723 C   0  0  0  0  0  0  0  0  0  0  0  0
  139.7114  149.8676  138.1808 C   0  0  0  0  0  0  0  0  0  0  0  0
  136.8168  150.4041  143.1130 C   0  0  0  0  0  0  0  0  0  0  0  0
  137.0210  149.4721  139.4001 C   0  0  0  0  0  0  0  0  0  0  0  0
  137.1860  150.7384  144.1283 C   0  0  0  0  0  0  0  0  0  0  0  0
  138.0170  149.6983  138.7097 C   0  0  0  0  0  0  0  0  0  0  0  0
  136.3881  151.4884  145.2660 C   0  0  0  0  0  0  0  0  0  0  0  0
  1  2  2  0
  1  3  1  0
  3  4  1  0
  4  5  2  0
  3  6  1  0
  6  7  2  0
  5  8  1  0
  2  9  1  0
  4 10  1  0
  5 11  1  0
  7 12  1  0
 10 12  2  0
  2 13  1  0
 11 13  2  0
 12 14  1  0
M  END
$$$$

     RDKit          3D

 14 15  0  0  0  0  0  0  0  0999 V2000
  139.3443  149.9938  140.5872 C   0  0  0  0  0  0  0  0  0  0  0  0
  138.9756  149.9372  139.3587 C   0  0  0  0  0  0  0  0  0  0  0  0
  138.5880  150.0764  141.6359 C   0  0  0  0  0  0  0  0  0  0  0  0
  137.2185  149.9023  141.8334 C   0  0  0  0  0  0  0  0  0  0  0  0
  136.5002  149.8297  140.5761 C   0  0  0  0  0  0  0  0  0  0  0  0
  139.1863  150.3537  143.1491 C   0  0  0  0  0  0  0  0  0  0  0  0
  138.2367  150.9497  144.0909 C   0  0  0  0  0  0  0  0  0  0  0  0
  136.9516  150.8955  143.8600 C   0  0  0  0  0  0  0  0  0  0  0  0
  139.8797  149.9829  138.2590 C   0  0  0  0  0  0  0  0  0  0  0  0
  136.1730  151.3676  145.1023 C   0  0  0  0  0  0  0  0  0  0  0  0
  135.0804  149.6588  140.5687 C   0  0  0  0  0  0  0  0  0  0  0  0
  137.6346  149.8258  138.6025 C   0  0  0  0  0  0  0  0  0  0  0  0
  136.7589  149.7200  139.1389 C   0  0  0  0  0  0  0  0  0  0  0  0
  136.3748  150.2999  142.7957 N   0  0  0  0  0  0  0  0  0  0  0  0
  1  2  2  0
  1  3  1  0
  3  4  1  0
  4  5  2  0
  3  6  1  0
  6  7  2  0
  7  8  1  0
  2  9  1  0
  8 10  1  0
  5 11  1  0
  2 12  1  0
  5 13  1  0
 12 13  2  0
  4 14  1  0
  8 14  2  0
M  END
$$$$

     RDKit          3D

 14 14  0  0  0  0  0  0  0  0999 V2000
  140.3043  150.2153  139.4787 Cl  0  0  0  0  0  0  0  0  0  0  0  0
  138.6777  150.1901  140.5340 C   0  0  0  0  0  0  0  0  0  0  0  0
  137.6379  149.3864  140.0971 C   0  0  0  0  0  0  0  0  0  0  0  0
  138.7740  150.9330  141.6513 C   0  0  0  0  0  0  0  0  0  0  0  0
  138.1503  150.9121  142.4451 C   0  0  0  0  0  0  0  0  0  0  0  0
  136.8417  150.0645  142.3201 C   0  0  0  0  0  0  0  0  0  0  0  0
  135.8231  150.1830  143.3116 C   0  0  0  0  0  0  0  0  0  0  0  0
  137.4901  148.8589  138.8804 C   0  0  0  0  0  0  0  0  0  0  0  0
  136.5318  149.5224  141.1352 C   0  0  0  0  0  0  0  0  0  0  0  0
  136.2964  150.4602  144.5800 C   0  0  0  0  0  0  0  0  0  0  0  0
  135.5128  150.6248  145.7911 C   0  0  0  0  0  0  0  0  0  0  0  0
  135.1665  151.9244  146.0992 C   0  0  0  0  0  0  0  0  0  0  0  0
  135.5561  152.9345  145.5846 O   0  0  0  0  0  0  0  0  0  0  0  0
  134.2257  152.1865  147.1000 O   0  0  0  0  0  0  0  0  0  0  0  0
  1  2  1  0
  2  3  1  0
  2  4  2  0
  4  5  1  0
  5  6  2  0
  6  7  1  0
  3  8  1  0
  3  9  2  0
  6  9  1  0
  7 10  2  3
 10 11  1  0
 11 12  1  0
 12 13  2  0
 12 14  1  0
M  END
$$$$

     RDKit          3D

 14 15  0  0  0  0  0  0  0  0999 V2000
  139.3443  149.9938  140.5872 C   0  0  0  0  0  0  0  0  0  0  0  0
  138.9756  149.9372  139.3587 C   0  0  0  0  0  0  0  0  0  0  0  0
  138.5880  150.0764  141.6359 C   0  0  0  0  0  0  0  0  0  0  0  0
  137.2185  149.9023  141.8334 C   0  0  0  0  0  0  0  0  0  0  0  0
  136.5002  149.8297  140.5761 C   0  0  0  0  0  0  0  0  0  0  0  0
  139.1863  150.3537  143.1491 C   0  0  0  0  0  0  0  0  0  0  0  0
  138.2367  150.9497  144.0909 C   0  0  0  0  0  0  0  0  0  0  0  0
  136.7172  150.4145  143.0633 C   0  0  0  0  0  0  0  0  0  0  0  0
  137.0825  150.7524  144.0792 C   0  0  0  0  0  0  0  0  0  0  0  0
  135.1987  149.6345  140.4584 C   0  0  0  0  0  0  0  0  0  0  0  0
  136.1652  151.0886  145.3958 C   0  0  0  0  0  0  0  0  0  0  0  0
  137.5391  149.7033  139.1700 C   0  0  0  0  0  0  0  0  0  0  0  0
  135.1601  152.0055  145.1242 C   0  0  0  0  0  0  0  0  0  0  0  0
  135.4169  153.1626  145.0387 C   0  0  0  0  0  0  0  0  0  0  0  0
  1  2  2  0
  1  3  1  0
  3  4  1  0
  4  5  2  0
  3  6  1  0
  6  7  2  0
  4  8  1  0
  7  9  1  0
  8  9  2  0
  5 10  1  0
  9 11  1  0
  2 12  1  0
  5 12  1  0
 11 13  1  0
 13 14  1  0
M  END
$$$$

     RDKit          3D

 14 15  0  0  0  0  0  0  0  0999 V2000
  140.3043  150.2153  139.4787 Cl  0  0  0  0  0  0  0  0  0  0  0  0
  138.6777  150.1901  140.5340 C   0  0  0  0  0  0  0  0  0  0  0  0
  137.6379  149.3864  140.0971 C   0  0  0  0  0  0  0  0  0  0  0  0
  138.7740  150.9330  141.6513 C   0  0  0  0  0  0  0  0  0  0  0  0
  138.1503  150.9121  142.4451 C   0  0  0  0  0  0  0  0  0  0  0  0
  138.2393  151.5036  143.8900 C   0  0  0  0  0  0  0  0  0  0  0  0
  136.9238  150.2035  142.6659 C   0  0  0  0  0  0  0  0  0  0  0  0
  136.0630  150.3375  143.8286 C   0  0  0  0  0  0  0  0  0  0  0  0
  137.6037  148.9501  138.8616 C   0  0  0  0  0  0  0  0  0  0  0  0
  136.5127  149.5351  141.0184 C   0  0  0  0  0  0  0  0  0  0  0  0
  137.2355  151.2537  144.7845 C   0  0  0  0  0  0  0  0  0  0  0  0
  137.2947  150.6016  146.0265 C   0  0  0  0  0  0  0  0  0  0  0  0
  136.5128  152.4271  144.9465 C   0  0  0  0  0  0  0  0  0  0  0  0
  138.5356  148.5575  138.0552 C   0  0  0  0  0  0  0  0  0  0  0  0
  1  2  1  0
  2  3  1  0
  2  4  2  0
  4  5  1  0
  5  6  1  0
  5  7  2  0
  7  8  1  0
  3  9  2  3
  3 10  1  0
  7 10  1  0
  6 11  1  0
  8 11  1  0
 11 12  1  0
 11 13  1  0
  9 14  1  0
M  END
$$$$

     RDKit          3D

 14 15  0  0  0  0  0  0  0  0999 V2000
  139.3443  149.9938  140.5872 C   0  0  0  0  0  0  0  0  0  0  0  0
  138.9756  149.9372  139.3587 C   0  0  0  0  0  0  0  0  0  0  0  0
  138.5880  150.0764  141.6359 C   0  0  0  0  0  0  0  0  0  0  0  0
  137.2185  149.9023  141.8334 C   0  0  0  0  0  0  0  0  0  0  0  0
  136.5002  149.8297  140.5761 C   0  0  0  0  0  0  0  0  0  0  0  0
  139.1863  150.3537  143.1491 C   0  0  0  0  0  0  0  0  0  0  0  0
  138.2367  150.9497  144.0909 C   0  0  0  0  0  0  0  0  0  0  0  0
  136.7172  150.4145  143.0633 C   0  0  0  0  0  0  0  0  0  0  0  0
  137.0825  150.7524  144.0792 C   0  0  0  0  0  0  0  0  0  0  0  0
  135.1987  149.6345  140.4584 C   0  0  0  0  0  0  0  0  0  0  0  0
  136.1652  151.0886  145.3958 C   0  0  0  0  0  0  0  0  0  0  0  0
  137.5391  149.7033  139.1700 C   0  0  0  0  0  0  0  0  0  0  0  0
  135.8116  152.2839  145.4916 C   0  0  0  0  0  0  0  0  0  0  0  0
  134.9563  152.6887  146.6908 C   0  0  0  0  0  0  0  0  0  0  0  0
  1  2  2  0
  1  3  1  0
  3  4  1  0
  4  5  2  0
  3  6  1  0
  6  7  2  0
  4  8  1  0
  7  9  1  0
  8  9  2  0
  5 10  1  0
  9 11  1  0
  2 12  1  0
  5 12  1  0
 11 13  2  3
 13 14  1  0
M  END
$$$$

     RDKit          3D

 14 15  0  0  0  0  0  0  0  0999 V2000
  139.3443  149.9938  140.5872 C   0  0  0  0  0  0  0  0  0  0  0  0
  138.9756  149.9372  139.3587 C   0  0  0  0  0  0  0  0  0  0  0  0
  138.5880  150.0764  141.6359 C   0  0  0  0  0  0  0  0  0  0  0  0
  137.2185  149.9023  141.8334 C   0  0  0  0  0  0  0  0  0  0  0  0
  136.5002  149.8297  140.5761 C   0  0  0  0  0  0  0  0  0  0  0  0
  139.1863  150.3537  143.1491 C   0  0  0  0  0  0  0  0  0  0  0  0
  138.2367  150.9497  144.0909 C   0  0  0  0  0  0  0  0  0  0  0  0
  136.9516  150.8955  143.8600 C   0  0  0  0  0  0  0  0  0  0  0  0
  139.8797  149.9829  138.2590 C   0  0  0  0  0  0  0  0  0  0  0  0
  136.1730  151.3676  145.1023 C   0  0  0  0  0  0  0  0  0  0  0  0
  136.9061  149.6773  139.3652 C   0  0  0  0  0  0  0  0  0  0  0  0
  135.0775  152.2630  144.8681 C   0  0  0  0  0  0  0  0  0  0  0  0
  137.7670  149.6410  138.7642 C   0  0  0  0  0  0  0  0  0  0  0  0
  136.5497  150.3376  142.9697 N   0  0  0  0  0  0  0  0  0  0  0  0
  1  2  2  0
  1  3  1  0
  3  4  1  0
  4  5  2  0
  3  6  1  0
  6  7  2  0
  7  8  1  0
  2  9  1  0
  8 10  1  0
  5 11  1  0
 10 12  1  0
  2 13  1  0
 11 13  2  0
  4 14  1  0
  8 14  2  0
M  END
$$$$

     RDKit          3D

 14 15  0  0  0  0  0  0  0  0999 V2000
  138.9700  151.3142  142.5680 C   0  0  0  0  0  0  0  0  0  0  0  0
  138.6028  152.0888  143.2649 C   0  0  0  0  0  0  0  0  0  0  0  0
  137.4885  151.7627  144.1910 C   0  0  0  0  0  0  0  0  0  0  0  0
  139.9946  151.3890  141.4262 C   0  0  0  0  0  0  0  0  0  0  0  0
  137.1413  150.3696  144.0327 C   0  0  0  0  0  0  0  0  0  0  0  0
  138.4285  149.9931  142.3915 C   0  0  0  0  0  0  0  0  0  0  0  0
  136.7928  152.5100  145.0952 C   0  0  0  0  0  0  0  0  0  0  0  0
  137.0879  153.7796  145.2301 C   0  0  0  0  0  0  0  0  0  0  0  0
  135.6154  152.0446  145.6903 C   0  0  0  0  0  0  0  0  0  0  0  0
  136.2589  150.0102  145.1297 C   0  0  0  0  0  0  0  0  0  0  0  0
  137.6907  149.5659  143.2488 N   0  0  0  0  0  0  0  0  0  0  0  0
  140.1720  150.7665  140.2199 C   0  0  0  0  0  0  0  0  0  0  0  0
  140.5461  151.2155  139.0429 C   0  0  0  0  0  0  0  0  0  0  0  0
  135.5046  150.8044  145.8698 C   0  0  0  0  0  0  0  0  0  0  0  0
  1  2  1  0
  2  3  2  0
  1  4  1  0
  3  5  1  0
  1  6  2  0
  3  7  1  0
  7  8  1  0
  7  9  2  0
  5 10  1  0
  5 11  2  0
  6 11  1  0
  4 12  2  3
 12 13  1  0
  9 14  1  0
 10 14  2  0
M  END
$$$$

     RDKit          3D

 14 15  0  0  0  0  0  0  0  0999 V2000
  139.3443  149.9938  140.5872 C   0  0  0  0  0  0  0  0  0  0  0  0
  138.9756  149.9372  139.3587 C   0  0  0  0  0  0  0  0  0  0  0  0
  138.5880  150.0764  141.6359 C   0  0  0  0  0  0  0  0  0  0  0  0
  137.2185  149.9023  141.8334 C   0  0  0  0  0  0  0  0  0  0  0  0
  136.5002  149.8297  140.5761 C   0  0  0  0  0  0  0  0  0  0  0  0
  139.1863  150.3537  143.1491 C   0  0  0  0  0  0  0  0  0  0  0  0
  138.2367  150.9497  144.0909 C   0  0  0  0  0  0  0  0  0  0  0  0
  136.7172  150.4145  143.0633 C   0  0  0  0  0  0  0  0  0  0  0  0
  137.0825  150.7524  144.0792 C   0  0  0  0  0  0  0  0  0  0  0  0
  135.1987  149.6345  140.4584 C   0  0  0  0  0  0  0  0  0  0  0  0
  136.1652  151.0886  145.3958 C   0  0  0  0  0  0  0  0  0  0  0  0
  135.7820  152.2743  145.4666 C   0  0  0  0  0  0  0  0  0  0  0  0
  137.4254  149.6807  139.2732 C   0  0  0  0  0  0  0  0  0  0  0  0
  136.1983  153.2728  144.8027 C   0  0  0  0  0  0  0  0  0  0  0  0
  1  2  2  0
  1  3  1  0
  3  4  1  0
  4  5  2  0
  3  6  1  0
  6  7  2  0
  4  8  1  0
  7  9  1  0
  8  9  2  0
  5 10  1  0
  9 11  1  0
 11 12  1  0
  2 13  1  0
  5 13  1  0
 12 14  2  0
M  END
$$$$

     RDKit          3D

 14 14  0  0  0  0  0  0  0  0999 V2000
  139.3443  149.9938  140.5872 C   0  0  0  0  0  0  0  0  0  0  0  0
  138.9756  149.9372  139.3587 C   0  0  0  0  0  0  0  0  0  0  0  0
  138.5880  150.0764  141.6359 C   0  0  0  0  0  0  0  0  0  0  0  0
  137.6059  149.8647  139.0257 C   0  0  0  0  0  0  0  0  0  0  0  0
  137.1676  149.4968  137.7630 O   0  0  0  0  0  0  0  0  0  0  0  0
  136.5842  149.6761  139.7231 C   0  0  0  0  0  0  0  0  0  0  0  0
  139.1043  150.3500  143.0327 C   0  0  0  0  0  0  0  0  0  0  0  0
  138.4320  151.2968  143.7316 C   0  0  0  0  0  0  0  0  0  0  0  0
  137.3538  151.6103  143.5439 C   0  0  0  0  0  0  0  0  0  0  0  0
  136.6255  152.4866  144.5286 C   0  0  0  0  0  0  0  0  0  0  0  0
  137.1089  150.1922  141.5542 C   0  0  0  0  0  0  0  0  0  0  0  0
  135.5171  152.0795  145.2723 C   0  0  0  0  0  0  0  0  0  0  0  0
  135.2334  150.8185  145.2612 C   0  0  0  0  0  0  0  0  0  0  0  0
  135.0096  153.0282  146.2524 C   0  0  0  0  0  0  0  0  0  0  0  0
  1  2  2  0
  1  3  1  0
  2  4  1  0
  4  5  1  0
  4  6  2  0
  3  7  1  0
  7  8  2  3
  8  9  1  0
  9 10  1  0
  3 11  2  0
  6 11  1  0
 10 12  2  3
 12 13  1  0
 12 14  1  0
M  END
$$$$

     RDKit          3D

 14 15  0  0  0  0  0  0  0  0999 V2000
  139.3443  149.9938  140.5872 C   0  0  0  0  0  0  0  0  0  0  0  0
  138.9756  149.9372  139.3587 C   0  0  0  0  0  0  0  0  0  0  0  0
  138.5880  150.0764  141.6359 C   0  0  0  0  0  0  0  0  0  0  0  0
  137.2185  149.9023  141.8334 C   0  0  0  0  0  0  0  0  0  0  0  0
  136.5002  149.8297  140.5761 C   0  0  0  0  0  0  0  0  0  0  0  0
  139.1863  150.3537  143.1491 C   0  0  0  0  0  0  0  0  0  0  0  0
  138.2367  150.9497  144.0909 C   0  0  0  0  0  0  0  0  0  0  0  0
  136.9516  150.8955  143.8600 C   0  0  0  0  0  0  0  0  0  0  0  0
  139.8797  149.9829  138.2590 C   0  0  0  0  0  0  0  0  0  0  0  0
  136.1730  151.3676  145.1023 C   0  0  0  0  0  0  0  0  0  0  0  0
  136.9061  149.6773  139.3652 C   0  0  0  0  0  0  0  0  0  0  0  0
  135.0775  152.2630  144.8681 C   0  0  0  0  0  0  0  0  0  0  0  0
  137.7670  149.6410  138.7642 C   0  0  0  0  0  0  0  0  0  0  0  0
  136.3564  150.2586  142.7834 C   0  0  0  0  0  0  0  0  0  0  0  0
  1  2  2  0
  1  3  1  0
  3  4  1  0
  4  5  2  0
  3  6  1  0
  6  7  2  0
  7  8  1  0
  2  9  1  0
  8 10  1  0
  5 11  1  0
 10 12  1  0
  2 13  1  0
 11 13  2  0
  4 14  1  0
  8 14  2  0
M  END
$$$$

     RDKit          3D

 14 15  0  0  0  0  0  0  0  0999 V2000
  139.0001  149.7637  140.3651 C   0  0  0  0  0  0  0  0  0  0  0  0
  138.7140  149.5447  139.1253 C   0  0  0  0  0  0  0  0  0  0  0  0
  138.1593  150.1004  141.2813 C   0  0  0  0  0  0  0  0  0  0  0  0
  137.3241  149.5797  138.6751 C   0  0  0  0  0  0  0  0  0  0  0  0
  136.4644  149.5491  139.6303 C   0  0  0  0  0  0  0  0  0  0  0  0
  138.5755  150.4940  142.6471 C   0  0  0  0  0  0  0  0  0  0  0  0
  135.0085  149.6106  139.4557 O   0  0  0  0  0  0  0  0  0  0  0  0
  137.6846  150.8385  143.6636 C   0  0  0  0  0  0  0  0  0  0  0  0
  136.4359  150.7714  143.2617 C   0  0  0  0  0  0  0  0  0  0  0  0
  135.4691  151.2002  144.3152 C   0  0  0  0  0  0  0  0  0  0  0  0
  136.7424  149.9353  141.0282 C   0  0  0  0  0  0  0  0  0  0  0  0
  135.6577  150.2269  141.8899 C   0  0  0  0  0  0  0  0  0  0  0  0
  135.4225  152.5128  144.7368 C   0  0  0  0  0  0  0  0  0  0  0  0
  136.0321  152.7309  146.1054 C   0  0  0  0  0  0  0  0  0  0  0  0
  1  2  2  0
  1  3  1  0
  2  4  1  0
  4  5  2  0
  3  6  1  0
  5  7  1  0
  6  8  2  0
  8  9  1  0
  9 10  1  0
  3 11  2  0
  5 11  1  0
  9 12  2  0
 11 12  1  0
 10 13  1  0
 13 14  1  0
M  END
$$$$

     RDKit          3D

 14 15  0  0  0  0  0  0  0  0999 V2000
  140.3043  150.2153  139.4787 Cl  0  0  0  0  0  0  0  0  0  0  0  0
  138.6777  150.1901  140.5340 C   0  0  0  0  0  0  0  0  0  0  0  0
  137.6379  149.3864  140.0971 C   0  0  0  0  0  0  0  0  0  0  0  0
  138.7740  150.9330  141.6513 C   0  0  0  0  0  0  0  0  0  0  0  0
  137.6926  150.8816  142.5542 C   0  0  0  0  0  0  0  0  0  0  0  0
  137.8475  151.5161  143.9010 C   0  0  0  0  0  0  0  0  0  0  0  0
  136.6428  150.1161  142.0733 C   0  0  0  0  0  0  0  0  0  0  0  0
  137.6262  148.7824  138.9011 C   0  0  0  0  0  0  0  0  0  0  0  0
  135.4407  150.3653  143.0972 C   0  0  0  0  0  0  0  0  0  0  0  0
  136.4349  149.4791  140.9268 C   0  0  0  0  0  0  0  0  0  0  0  0
  135.6562  151.0303  144.2810 C   0  0  0  0  0  0  0  0  0  0  0  0
  134.4417  151.2127  145.2139 C   0  0  0  0  0  0  0  0  0  0  0  0
  136.8600  151.5624  144.7835 C   0  0  0  0  0  0  0  0  0  0  0  0
  137.1841  152.1064  145.9742 O   0  0  0  0  0  0  0  0  0  0  0  0
  1  2  1  0
  2  3  1  0
  2  4  2  0
  4  5  1  0
  5  6  1  0
  5  7  2  0
  3  8  1  0
  7  9  1  0
  3 10  2  0
  7 10  1  0
  9 11  2  0
 11 12  1  0
  6 13  1  0
 11 13  1  0
 13 14  2  0
M  END
$$$$

     RDKit          3D

 15 16  0  0  0  0  0  0  0  0999 V2000
  139.3443  149.9938  140.5872 C   0  0  0  0  0  0  0  0  0  0  0  0
  138.9756  149.9372  139.3587 C   0  0  0  0  0  0  0  0  0  0  0  0
  138.5880  150.0764  141.6359 C   0  0  0  0  0  0  0  0  0  0  0  0
  137.2185  149.9023  141.8334 C   0  0  0  0  0  0  0  0  0  0  0  0
  136.5002  149.8297  140.5761 C   0  0  0  0  0  0  0  0  0  0  0  0
  139.1863  150.3537  143.1491 C   0  0  0  0  0  0  0  0  0  0  0  0
  138.2367  150.9497  144.0909 C   0  0  0  0  0  0  0  0  0  0  0  0
  136.9516  150.8955  143.8600 C   0  0  0  0  0  0  0  0  0  0  0  0
  139.8797  149.9829  138.2590 C   0  0  0  0  0  0  0  0  0  0  0  0
  136.1730  151.3676  145.1023 C   0  0  0  0  0  0  0  0  0  0  0  0
  135.0804  149.6588  140.5687 C   0  0  0  0  0  0  0  0  0  0  0  0
  137.6346  149.8258  138.6025 C   0  0  0  0  0  0  0  0  0  0  0  0
  134.9682  152.0974  144.8162 C   0  0  0  0  0  0  0  0  0  0  0  0
  136.4951  150.0702  143.0260 C   0  0  0  0  0  0  0  0  0  0  0  0
  136.6912  149.6624  139.4517 N   0  0  0  0  0  0  0  0  0  0  0  0
  1  2  2  0
  1  3  1  0
  3  4  1  0
  4  5  2  0
  3  6  1  0
  6  7  2  0
  7  8  1  0
  2  9  1  0
  8 10  1  0
  5 11  1  0
  2 12  1  0
 10 13  1  0
  4 14  1  0
  8 14  2  0
  5 15  1  0
 12 15  1  0
M  END
$$$$

     RDKit          3D

 15 16  0  0  0  0  0  0  0  0999 V2000
  139.3443  149.9938  140.5872 C   0  0  0  0  0  0  0  0  0  0  0  0
  138.9756  149.9372  139.3587 C   0  0  0  0  0  0  0  0  0  0  0  0
  138.5880  150.0764  141.6359 C   0  0  0  0  0  0  0  0  0  0  0  0
  137.2185  149.9023  141.8334 C   0  0  0  0  0  0  0  0  0  0  0  0
  136.5002  149.8297  140.5761 C   0  0  0  0  0  0  0  0  0  0  0  0
  139.1863  150.3537  143.1491 C   0  0  0  0  0  0  0  0  0  0  0  0
  138.2367  150.9497  144.0909 C   0  0  0  0  0  0  0  0  0  0  0  0
  136.9516  150.8955  143.8600 C   0  0  0  0  0  0  0  0  0  0  0  0
  139.8797  149.9829  138.2590 C   0  0  0  0  0  0  0  0  0  0  0  0
  136.1730  151.3676  145.1023 C   0  0  0  0  0  0  0  0  0  0  0  0
  135.0804  149.6588  140.5687 C   0  0  0  0  0  0  0  0  0  0  0  0
  136.4114  150.2963  142.9453 C   0  0  0  0  0  0  0  0  0  0  0  0
  136.6468  151.7291  146.2683 C   0  0  0  0  0  0  0  0  0  0  0  0
  135.2003  152.1198  144.8772 C   0  0  0  0  0  0  0  0  0  0  0  0
  137.3445  149.6750  139.3907 C   0  0  0  0  0  0  0  0  0  0  0  0
  1  2  2  0
  1  3  1  0
  3  4  1  0
  4  5  2  0
  3  6  1  0
  6  7  2  0
  7  8  1  0
  2  9  1  0
  8 10  1  0
  5 11  1  0
  4 12  1  0
  8 12  2  0
 10 13  1  0
 10 14  1  0
  2 15  1  0
  5 15  1  0
M  END
$$$$

     RDKit          3D

 15 16  0  0  0  0  0  0  0  0999 V2000
  138.9700  151.3142  142.5680 C   0  0  0  0  0  0  0  0  0  0  0  0
  138.6028  152.0888  143.2649 C   0  0  0  0  0  0  0  0  0  0  0  0
  139.7534  151.4391  141.3513 C   0  0  0  0  0  0  0  0  0  0  0  0
  137.5434  151.8486  144.3752 C   0  0  0  0  0  0  0  0  0  0  0  0
  137.4057  150.5855  144.6897 C   0  0  0  0  0  0  0  0  0  0  0  0
  139.5846  150.4504  140.3545 C   0  0  0  0  0  0  0  0  0  0  0  0
  138.6911  149.4437  140.7439 C   0  0  0  0  0  0  0  0  0  0  0  0
  137.7600  149.6564  141.7147 C   0  0  0  0  0  0  0  0  0  0  0  0
  140.3875  150.5132  139.1360 C   0  0  0  0  0  0  0  0  0  0  0  0
  138.0573  150.4024  142.7870 C   0  0  0  0  0  0  0  0  0  0  0  0
  136.8643  152.8082  144.9113 C   0  0  0  0  0  0  0  0  0  0  0  0
  136.8258  150.4049  146.0362 C   0  0  0  0  0  0  0  0  0  0  0  0
  135.6134  152.5966  145.4867 C   0  0  0  0  0  0  0  0  0  0  0  0
  137.5930  150.0439  143.9824 N   0  0  0  0  0  0  0  0  0  0  0  0
  135.6518  151.3715  146.3123 C   0  0  0  0  0  0  0  0  0  0  0  0
  1  2  1  0
  1  3  1  0
  2  4  1  0
  4  5  2  0
  3  6  2  0
  6  7  1  0
  7  8  2  0
  6  9  1  0
  1 10  2  0
  8 10  1  0
  4 11  1  0
  5 12  1  0
 11 13  2  0
 10 14  1  0
 12 15  2  0
 13 15  1  0
M  END
$$$$

     RDKit          3D

 15 16  0  0  0  0  0  0  0  0999 V2000
  139.3443  149.9938  140.5872 C   0  0  0  0  0  0  0  0  0  0  0  0
  138.9756  149.9372  139.3587 C   0  0  0  0  0  0  0  0  0  0  0  0
  138.5880  150.0764  141.6359 C   0  0  0  0  0  0  0  0  0  0  0  0
  137.2185  149.9023  141.8334 C   0  0  0  0  0  0  0  0  0  0  0  0
  136.5002  149.8297  140.5761 C   0  0  0  0  0  0  0  0  0  0  0  0
  139.1863  150.3537  143.1491 C   0  0  0  0  0  0  0  0  0  0  0  0
  138.2367  150.9497  144.0909 C   0  0  0  0  0  0  0  0  0  0  0  0
  136.9516  150.8955  143.8600 C   0  0  0  0  0  0  0  0  0  0  0  0
  139.8797  149.9829  138.2590 C   0  0  0  0  0  0  0  0  0  0  0  0
  136.1730  151.3676  145.1023 C   0  0  0  0  0  0  0  0  0  0  0  0
  136.9061  149.6773  139.3652 C   0  0  0  0  0  0  0  0  0  0  0  0
  136.5512  151.3613  146.3590 C   0  0  0  0  0  0  0  0  0  0  0  0
  136.2409  150.4171  142.8519 C   0  0  0  0  0  0  0  0  0  0  0  0
  137.7592  149.6333  138.7771 C   0  0  0  0  0  0  0  0  0  0  0  0
  134.8092  151.9733  144.9151 C   0  0  0  0  0  0  0  0  0  0  0  0
  1  2  2  0
  1  3  1  0
  3  4  1  0
  4  5  2  0
  3  6  1  0
  6  7  2  0
  7  8  1  0
  2  9  1  0
  8 10  1  0
  5 11  1  0
 10 12  2  0
  4 13  1  0
  8 13  2  0
  2 14  1  0
 11 14  2  0
 10 15  1  0
M  END
$$$$

     RDKit          3D

 15 16  0  0  0  0  0  0  0  0999 V2000
  139.3443  149.9938  140.5872 C   0  0  0  0  0  0  0  0  0  0  0  0
  138.9756  149.9372  139.3587 C   0  0  0  0  0  0  0  0  0  0  0  0
  138.5880  150.0764  141.6359 C   0  0  0  0  0  0  0  0  0  0  0  0
  137.2185  149.9023  141.8334 C   0  0  0  0  0  0  0  0  0  0  0  0
  136.5002  149.8297  140.5761 C   0  0  0  0  0  0  0  0  0  0  0  0
  139.1863  150.3537  143.1491 C   0  0  0  0  0  0  0  0  0  0  0  0
  138.2367  150.9497  144.0909 C   0  0  0  0  0  0  0  0  0  0  0  0
  135.0949  149.7516  140.3723 C   0  0  0  0  0  0  0  0  0  0  0  0
  139.7114  149.8676  138.1808 C   0  0  0  0  0  0  0  0  0  0  0  0
  136.8168  150.4041  143.1130 C   0  0  0  0  0  0  0  0  0  0  0  0
  137.1467  150.7468  144.1566 C   0  0  0  0  0  0  0  0  0  0  0  0
  136.2111  150.9779  145.4120 C   0  0  0  0  0  0  0  0  0  0  0  0
  136.4544  151.7457  146.3737 C   0  0  0  0  0  0  0  0  0  0  0  0
  137.0587  149.4599  139.3069 C   0  0  0  0  0  0  0  0  0  0  0  0
  135.2836  152.7219  146.6969 C   0  0  0  0  0  0  0  0  0  0  0  0
  1  2  2  0
  1  3  1  0
  3  4  1  0
  4  5  2  0
  3  6  1  0
  6  7  2  0
  5  8  1  0
  2  9  1  0
  4 10  1  0
  7 11  1  0
 10 11  2  0
 11 12  1  0
 12 13  1  0
  2 14  1  0
  5 14  1  0
 13 15  1  0
M  END
$$$$

     RDKit          3D

 15 16  0  0  0  0  0  0  0  0999 V2000
  139.2617  151.0924  142.4042 C   0  0  0  0  0  0  0  0  0  0  0  0
  138.8616  152.1308  142.9030 C   0  0  0  0  0  0  0  0  0  0  0  0
  137.7833  151.8925  143.8931 C   0  0  0  0  0  0  0  0  0  0  0  0
  137.3594  150.5408  144.0624 C   0  0  0  0  0  0  0  0  0  0  0  0
  136.3237  150.4660  145.1229 C   0  0  0  0  0  0  0  0  0  0  0  0
  139.2662  149.7548  142.8052 C   0  0  0  0  0  0  0  0  0  0  0  0
  139.9773  151.1303  141.1428 C   0  0  0  0  0  0  0  0  0  0  0  0
  138.1349  149.4647  143.7648 C   0  0  0  0  0  0  0  0  0  0  0  0
  135.7539  151.6085  145.3587 C   0  0  0  0  0  0  0  0  0  0  0  0
  137.1873  152.9690  144.5737 C   0  0  0  0  0  0  0  0  0  0  0  0
  136.1508  152.8855  145.2968 C   0  0  0  0  0  0  0  0  0  0  0  0
  139.9765  150.6255  140.1292 C   0  0  0  0  0  0  0  0  0  0  0  0
  139.1591  150.3659  138.9820 C   0  0  0  0  0  0  0  0  0  0  0  0
  141.3637  150.0104  139.5684 C   0  0  0  0  0  0  0  0  0  0  0  0
  135.5148  153.9816  145.7119 C   0  0  0  0  0  0  0  0  0  0  0  0
  1  2  1  0
  2  3  2  0
  3  4  1  0
  4  5  2  0
  1  6  1  0
  1  7  2  3
  4  8  1  0
  6  8  2  0
  5  9  1  0
  3 10  1  0
  9 11  1  0
 10 11  1  0
  7 12  1  0
 12 13  1  0
 12 14  2  0
 11 15  2  0
M  END
$$$$

     RDKit          3D

 15 16  0  0  0  0  0  0  0  0999 V2000
  139.2617  151.0924  142.4042 C   0  0  0  0  0  0  0  0  0  0  0  0
  138.8616  152.1308  142.9030 C   0  0  0  0  0  0  0  0  0  0  0  0
  137.7833  151.8925  143.8931 C   0  0  0  0  0  0  0  0  0  0  0  0
  137.3594  150.5408  144.0624 C   0  0  0  0  0  0  0  0  0  0  0  0
  136.3237  150.4660  145.1229 C   0  0  0  0  0  0  0  0  0  0  0  0
  139.2662  149.7548  142.8052 C   0  0  0  0  0  0  0  0  0  0  0  0
  137.9821  149.5363  143.6363 C   0  0  0  0  0  0  0  0  0  0  0  0
  135.7431  151.6428  145.3945 C   0  0  0  0  0  0  0  0  0  0  0  0
  140.2499  151.3279  141.2676 C   0  0  0  0  0  0  0  0  0  0  0  0
  140.1619  150.5385  140.0916 C   0  0  0  0  0  0  0  0  0  0  0  0
  136.9112  152.8423  144.5692 C   0  0  0  0  0  0  0  0  0  0  0  0
  136.0754  152.7690  145.4268 C   0  0  0  0  0  0  0  0  0  0  0  0
  135.5181  153.8284  146.0158 C   0  0  0  0  0  0  0  0  0  0  0  0
  134.4454  151.6291  146.0039 C   0  0  0  0  0  0  0  0  0  0  0  0
  133.9434  150.5790  146.7050 O   0  0  0  0  0  0  0  0  0  0  0  0
  1  2  1  0
  2  3  2  0
  3  4  1  0
  4  5  2  0
  1  6  1  0
  4  7  1  0
  6  7  2  0
  5  8  1  0
  1  9  2  3
  9 10  1  0
  3 11  1  0
  8 12  1  0
 11 12  1  0
 12 13  2  0
  8 14  2  3
 14 15  1  0
M  END
$$$$

     RDKit          3D

 15 16  0  0  0  0  0  0  0  0999 V2000
  139.3443  149.9938  140.5872 C   0  0  0  0  0  0  0  0  0  0  0  0
  138.9756  149.9372  139.3587 C   0  0  0  0  0  0  0  0  0  0  0  0
  138.5880  150.0764  141.6359 C   0  0  0  0  0  0  0  0  0  0  0  0
  137.2185  149.9023  141.8334 C   0  0  0  0  0  0  0  0  0  0  0  0
  136.5002  149.8297  140.5761 C   0  0  0  0  0  0  0  0  0  0  0  0
  139.1863  150.3537  143.1491 C   0  0  0  0  0  0  0  0  0  0  0  0
  138.2367  150.9497  144.0909 C   0  0  0  0  0  0  0  0  0  0  0  0
  135.0949  149.7516  140.3723 C   0  0  0  0  0  0  0  0  0  0  0  0
  139.7114  149.8676  138.1808 C   0  0  0  0  0  0  0  0  0  0  0  0
  136.8168  150.4041  143.1130 C   0  0  0  0  0  0  0  0  0  0  0  0
  137.1467  150.7468  144.1566 C   0  0  0  0  0  0  0  0  0  0  0  0
  136.2111  150.9779  145.4120 C   0  0  0  0  0  0  0  0  0  0  0  0
  137.4065  149.6878  139.3144 C   0  0  0  0  0  0  0  0  0  0  0  0
  135.1965  151.9428  145.1933 C   0  0  0  0  0  0  0  0  0  0  0  0
  135.4584  153.0547  145.0081 O   0  0  0  0  0  0  0  0  0  0  0  0
  1  2  2  0
  1  3  1  0
  3  4  1  0
  4  5  2  0
  3  6  1  0
  6  7  2  0
  5  8  1  0
  2  9  1  0
  4 10  1  0
  7 11  1  0
 10 11  2  0
 11 12  1  0
  2 13  1  0
  5 13  1  0
 12 14  1  0
 14 15  1  0
M  END
$$$$

     RDKit          3D

 15 16  0  0  0  0  0  0  0  0999 V2000
  139.3443  149.9938  140.5872 C   0  0  0  0  0  0  0  0  0  0  0  0
  138.9756  149.9372  139.3587 C   0  0  0  0  0  0  0  0  0  0  0  0
  138.5880  150.0764  141.6359 C   0  0  0  0  0  0  0  0  0  0  0  0
  137.2185  149.9023  141.8334 C   0  0  0  0  0  0  0  0  0  0  0  0
  136.5002  149.8297  140.5761 C   0  0  0  0  0  0  0  0  0  0  0  0
  139.1863  150.3537  143.1491 C   0  0  0  0  0  0  0  0  0  0  0  0
  138.2367  150.9497  144.0909 C   0  0  0  0  0  0  0  0  0  0  0  0
  135.0949  149.7516  140.3723 C   0  0  0  0  0  0  0  0  0  0  0  0
  139.7114  149.8676  138.1808 C   0  0  0  0  0  0  0  0  0  0  0  0
  137.0881  151.2737  144.0347 C   0  0  0  0  0  0  0  0  0  0  0  0
  136.3516  151.8230  145.1038 C   0  0  0  0  0  0  0  0  0  0  0  0
  136.2874  150.9425  142.8173 C   0  0  0  0  0  0  0  0  0  0  0  0
  134.9884  151.6992  145.2125 C   0  0  0  0  0  0  0  0  0  0  0  0
  137.4017  149.6099  139.4288 C   0  0  0  0  0  0  0  0  0  0  0  0
  136.9679  152.6209  146.0828 C   0  0  0  0  0  0  0  0  0  0  0  0
  1  2  2  0
  1  3  1  0
  3  4  1  0
  4  5  2  0
  3  6  1  0
  6  7  2  0
  5  8  1  0
  2  9  1  0
  7 10  1  0
 10 11  1  0
  4 12  1  0
 10 12  2  0
 11 13  1  0
  2 14  1  0
  5 14  1  0
 11 15  2  0
M  END
$$$$

     RDKit          3D

 15 16  0  0  0  0  0  0  0  0999 V2000
  139.2617  151.0924  142.4042 C   0  0  0  0  0  0  0  0  0  0  0  0
  138.8616  152.1308  142.9030 C   0  0  0  0  0  0  0  0  0  0  0  0
  137.7833  151.8925  143.8931 C   0  0  0  0  0  0  0  0  0  0  0  0
  137.3594  150.5408  144.0624 C   0  0  0  0  0  0  0  0  0  0  0  0
  136.3237  150.4660  145.1229 C   0  0  0  0  0  0  0  0  0  0  0  0
  139.2662  149.7548  142.8052 C   0  0  0  0  0  0  0  0  0  0  0  0
  139.9773  151.1303  141.1428 C   0  0  0  0  0  0  0  0  0  0  0  0
  138.1349  149.4647  143.7648 C   0  0  0  0  0  0  0  0  0  0  0  0
  135.7539  151.6085  145.3587 C   0  0  0  0  0  0  0  0  0  0  0  0
  137.1873  152.9690  144.5737 C   0  0  0  0  0  0  0  0  0  0  0  0
  136.1508  152.8855  145.2968 C   0  0  0  0  0  0  0  0  0  0  0  0
  139.9765  150.6255  140.1292 C   0  0  0  0  0  0  0  0  0  0  0  0
  139.1591  150.3659  138.9820 C   0  0  0  0  0  0  0  0  0  0  0  0
  141.3637  150.0104  139.5684 C   0  0  0  0  0  0  0  0  0  0  0  0
  135.6767  153.7090  145.9220 O   0  0  0  0  0  0  0  0  0  0  0  0
  1  2  1  0
  2  3  2  0
  3  4  1  0
  4  5  2  0
  1  6  1  0
  1  7  2  3
  4  8  1  0
  6  8  2  0
  5  9  1  0
  3 10  1  0
  9 11  1  0
 10 11  1  0
  7 12  1  0
 12 13  1  0
 12 14  2  0
 11 15  2  0
M  END
$$$$

     RDKit          3D

 15 16  0  0  0  0  0  0  0  0999 V2000
  138.9700  151.3142  142.5680 C   0  0  0  0  0  0  0  0  0  0  0  0
  138.6028  152.0888  143.2649 C   0  0  0  0  0  0  0  0  0  0  0  0
  139.7534  151.4391  141.3513 C   0  0  0  0  0  0  0  0  0  0  0  0
  137.5434  151.8486  144.3752 C   0  0  0  0  0  0  0  0  0  0  0  0
  137.4057  150.5855  144.6897 C   0  0  0  0  0  0  0  0  0  0  0  0
  139.5846  150.4504  140.3545 C   0  0  0  0  0  0  0  0  0  0  0  0
  138.6911  149.4437  140.7439 C   0  0  0  0  0  0  0  0  0  0  0  0
  137.7600  149.6564  141.7147 C   0  0  0  0  0  0  0  0  0  0  0  0
  140.3875  150.5132  139.1360 C   0  0  0  0  0  0  0  0  0  0  0  0
  138.0573  150.4024  142.7870 C   0  0  0  0  0  0  0  0  0  0  0  0
  136.8643  152.8082  144.9113 C   0  0  0  0  0  0  0  0  0  0  0  0
  136.8258  150.4049  146.0362 C   0  0  0  0  0  0  0  0  0  0  0  0
  135.6134  152.5966  145.4867 C   0  0  0  0  0  0  0  0  0  0  0  0
  137.5930  150.0439  143.9824 O   0  0  0  0  0  0  0  0  0  0  0  0
  135.7744  151.4017  146.1246 C   0  0  0  0  0  0  0  0  0  0  0  0
  1  2  1  0
  1  3  1  0
  2  4  1  0
  4  5  2  0
  3  6  2  0
  6  7  1  0
  7  8  2  0
  6  9  1  0
  1 10  2  0
  8 10  1  0
  4 11  1  0
  5 12  1  0
 11 13  2  0
 10 14  1  0
 12 15  2  0
 13 15  1  0
M  END
$$$$

     RDKit          3D

 15 16  0  0  0  0  0  0  0  0999 V2000
  139.3443  149.9938  140.5872 C   0  0  0  0  0  0  0  0  0  0  0  0
  138.9756  149.9372  139.3587 C   0  0  0  0  0  0  0  0  0  0  0  0
  138.5880  150.0764  141.6359 C   0  0  0  0  0  0  0  0  0  0  0  0
  137.2185  149.9023  141.8334 C   0  0  0  0  0  0  0  0  0  0  0  0
  136.5002  149.8297  140.5761 C   0  0  0  0  0  0  0  0  0  0  0  0
  139.1863  150.3537  143.1491 C   0  0  0  0  0  0  0  0  0  0  0  0
  138.2367  150.9497  144.0909 C   0  0  0  0  0  0  0  0  0  0  0  0
  135.0949  149.7516  140.3723 C   0  0  0  0  0  0  0  0  0  0  0  0
  139.7114  149.8676  138.1808 C   0  0  0  0  0  0  0  0  0  0  0  0
  137.0881  151.2737  144.0347 C   0  0  0  0  0  0  0  0  0  0  0  0
  136.3516  151.8230  145.1038 C   0  0  0  0  0  0  0  0  0  0  0  0
  137.2502  149.7157  139.3323 C   0  0  0  0  0  0  0  0  0  0  0  0
  136.3065  150.9115  142.8256 C   0  0  0  0  0  0  0  0  0  0  0  0
  134.9848  151.7290  145.1994 C   0  0  0  0  0  0  0  0  0  0  0  0
  134.4910  152.5349  146.4014 C   0  0  0  0  0  0  0  0  0  0  0  0
  1  2  2  0
  1  3  1  0
  3  4  1  0
  4  5  2  0
  3  6  1  0
  6  7  2  0
  5  8  1  0
  2  9  1  0
  7 10  1  0
 10 11  1  0
  2 12  1  0
  5 12  1  0
  4 13  1  0
 10 13  2  0
 11 14  2  3
 14 15  1  0
M  END
$$$$

     RDKit          3D

 15 16  0  0  0  0  0  0  0  0999 V2000
  139.3443  149.9938  140.5872 C   0  0  0  0  0  0  0  0  0  0  0  0
  138.9756  149.9372  139.3587 C   0  0  0  0  0  0  0  0  0  0  0  0
  138.5880  150.0764  141.6359 C   0  0  0  0  0  0  0  0  0  0  0  0
  137.2185  149.9023  141.8334 C   0  0  0  0  0  0  0  0  0  0  0  0
  136.5002  149.8297  140.5761 C   0  0  0  0  0  0  0  0  0  0  0  0
  139.1863  150.3537  143.1491 C   0  0  0  0  0  0  0  0  0  0  0  0
  138.2367  150.9497  144.0909 C   0  0  0  0  0  0  0  0  0  0  0  0
  135.0949  149.7516  140.3723 C   0  0  0  0  0  0  0  0  0  0  0  0
  139.7114  149.8676  138.1808 C   0  0  0  0  0  0  0  0  0  0  0  0
  137.0881  151.2737  144.0347 C   0  0  0  0  0  0  0  0  0  0  0  0
  136.3516  151.8230  145.1038 C   0  0  0  0  0  0  0  0  0  0  0  0
  136.2874  150.9425  142.8173 C   0  0  0  0  0  0  0  0  0  0  0  0
  134.9884  151.6992  145.2125 C   0  0  0  0  0  0  0  0  0  0  0  0
  137.4017  149.6099  139.4288 C   0  0  0  0  0  0  0  0  0  0  0  0
  136.9679  152.6209  146.0828 O   0  0  0  0  0  0  0  0  0  0  0  0
  1  2  2  0
  1  3  1  0
  3  4  1  0
  4  5  2  0
  3  6  1  0
  6  7  2  0
  5  8  1  0
  2  9  1  0
  7 10  1  0
 10 11  1  0
  4 12  1  0
 10 12  2  0
 11 13  1  0
  2 14  1  0
  5 14  1  0
 11 15  2  0
M  END
$$$$
