
     RDKit          3D

  9  9  0  0  0  0  0  0  0  0999 V2000
  139.5345  150.8917  142.2314 C   0  0  0  0  0  0  0  0  0  0  0  0
  139.0136  150.3975  141.0588 C   0  0  0  0  0  0  0  0  0  0  0  0
  138.6967  150.9489  143.4038 C   0  0  0  0  0  0  0  0  0  0  0  0
  137.7126  149.9443  141.0453 C   0  0  0  0  0  0  0  0  0  0  0  0
  137.3879  150.5377  143.3311 C   0  0  0  0  0  0  0  0  0  0  0  0
  136.8221  150.1196  142.4161 C   0  0  0  0  0  0  0  0  0  0  0  0
  139.8764  150.3677  139.7286 C   0  0  0  0  0  0  0  0  0  0  0  0
  136.5038  150.8044  144.7364 C   0  0  0  0  0  0  0  0  0  0  0  0
  139.3164  150.3447  138.5874 C   0  0  0  0  0  0  0  0  0  0  0  0
  1  2  2  0
  1  3  1  0
  2  4  1  0
  3  5  2  0
  4  6  2  0
  5  6  1  0
  2  7  1  0
  5  8  1  0
  7  9  2  0
M  END
$$$$

     RDKit          3D

  9  8  0  0  0  0  0  0  0  0999 V2000
  140.3024  150.2148  139.4796 Cl  0  0  0  0  0  0  0  0  0  0  0  0
  138.6763  150.1843  140.5310 C   0  0  0  0  0  0  0  0  0  0  0  0
  137.6367  149.3820  140.0914 C   0  0  0  0  0  0  0  0  0  0  0  0
  138.7708  150.9257  141.6508 C   0  0  0  0  0  0  0  0  0  0  0  0
  137.6808  150.8822  142.5406 C   0  0  0  0  0  0  0  0  0  0  0  0
  137.6715  148.8749  138.7100 C   0  0  0  0  0  0  0  0  0  0  0  0
  137.8290  151.4164  143.9042 C   0  0  0  0  0  0  0  0  0  0  0  0
  136.7219  151.6720  144.7339 C   0  0  0  0  0  0  0  0  0  0  0  0
  136.8698  152.2391  146.0077 C   0  0  0  0  0  0  0  0  0  0  0  0
  1  2  1  0
  2  3  1  0
  2  4  2  3
  4  5  1  0
  3  6  1  0
  5  7  1  0
  7  8  1  0
  8  9  1  0
M  END
$$$$

     RDKit          3D

  9  9  0  0  0  0  0  0  0  0999 V2000
  138.9700  151.3143  142.5679 C   0  0  0  0  0  0  0  0  0  0  0  0
  138.6023  152.0885  143.2650 C   0  0  0  0  0  0  0  0  0  0  0  0
  139.7634  151.4680  141.3543 C   0  0  0  0  0  0  0  0  0  0  0  0
  137.7631  151.7028  144.3624 C   0  0  0  0  0  0  0  0  0  0  0  0
  137.3919  150.2989  144.2724 C   0  0  0  0  0  0  0  0  0  0  0  0
  138.4955  149.8606  142.5714 C   0  0  0  0  0  0  0  0  0  0  0  0
  137.7865  149.3644  143.4976 C   0  0  0  0  0  0  0  0  0  0  0  0
  139.7444  150.6694  140.1600 C   0  0  0  0  0  0  0  0  0  0  0  0
  140.5065  150.9544  139.0194 C   0  0  0  0  0  0  0  0  0  0  0  0
  1  2  1  0
  1  3  1  0
  2  4  2  0
  4  5  1  0
  1  6  2  0
  5  7  2  0
  6  7  1  0
  3  8  2  3
  8  9  1  0
M  END
$$$$

     RDKit          3D

  9  9  0  0  0  0  0  0  0  0999 V2000
  139.5345  150.8917  142.2314 C   0  0  0  0  0  0  0  0  0  0  0  0
  138.9995  151.9980  142.6394 C   0  0  0  0  0  0  0  0  0  0  0  0
  138.9541  149.6529  142.4257 C   0  0  0  0  0  0  0  0  0  0  0  0
  138.2673  151.9686  143.7032 C   0  0  0  0  0  0  0  0  0  0  0  0
  137.8640  153.0944  144.4529 C   0  0  0  0  0  0  0  0  0  0  0  0
  137.6960  150.6263  144.1283 C   0  0  0  0  0  0  0  0  0  0  0  0
  138.0892  149.5106  143.5592 C   0  0  0  0  0  0  0  0  0  0  0  0
  136.4603  153.3016  144.8453 C   0  0  0  0  0  0  0  0  0  0  0  0
  136.0412  154.4947  145.3560 C   0  0  0  0  0  0  0  0  0  0  0  0
  1  2  2  0
  1  3  1  0
  2  4  1  0
  4  5  1  0
  4  6  2  0
  3  7  2  0
  6  7  1  0
  5  8  1  0
  8  9  1  0
M  END
$$$$

     RDKit          3D

  9  9  0  0  0  0  0  0  0  0999 V2000
  140.3024  150.2148  139.4796 Cl  0  0  0  0  0  0  0  0  0  0  0  0
  138.6763  150.1843  140.5310 C   0  0  0  0  0  0  0  0  0  0  0  0
  137.6367  149.3820  140.0914 C   0  0  0  0  0  0  0  0  0  0  0  0
  138.8646  150.7169  141.4514 C   0  0  0  0  0  0  0  0  0  0  0  0
  137.8185  150.8008  142.5159 C   0  0  0  0  0  0  0  0  0  0  0  0
  137.6093  148.9034  138.7245 C   0  0  0  0  0  0  0  0  0  0  0  0
  136.5110  149.4076  140.9864 C   0  0  0  0  0  0  0  0  0  0  0  0
  136.6472  150.0954  142.1440 C   0  0  0  0  0  0  0  0  0  0  0  0
  137.8559  151.6001  143.9340 Cl  0  0  0  0  0  0  0  0  0  0  0  0
  1  2  1  0
  2  3  2  0
  2  4  1  0
  4  5  2  0
  3  6  1  0
  3  7  1  0
  5  8  1  0
  7  8  2  0
  5  9  1  0
M  END
$$$$

     RDKit          3D

  9  9  0  0  0  0  0  0  0  0999 V2000
  138.9700  151.3143  142.5679 C   0  0  0  0  0  0  0  0  0  0  0  0
  138.6023  152.0885  143.2650 C   0  0  0  0  0  0  0  0  0  0  0  0
  137.4866  151.7382  144.1969 C   0  0  0  0  0  0  0  0  0  0  0  0
  139.9970  151.3974  141.4279 C   0  0  0  0  0  0  0  0  0  0  0  0
  137.1554  150.3528  144.0258 C   0  0  0  0  0  0  0  0  0  0  0  0
  138.3481  149.9264  142.4629 C   0  0  0  0  0  0  0  0  0  0  0  0
  137.5465  149.4608  143.3190 C   0  0  0  0  0  0  0  0  0  0  0  0
  139.7471  150.8881  140.2515 C   0  0  0  0  0  0  0  0  0  0  0  0
  136.8351  152.7302  145.2045 C   0  0  0  0  0  0  0  0  0  0  0  0
  1  2  1  0
  2  3  2  0
  1  4  1  0
  3  5  1  0
  1  6  2  0
  5  7  2  0
  6  7  1  0
  4  8  1  0
  3  9  1  0
M  END
$$$$

     RDKit          3D

  9  9  0  0  0  0  0  0  0  0999 V2000
  140.3024  150.2148  139.4796 Cl  0  0  0  0  0  0  0  0  0  0  0  0
  138.6763  150.1843  140.5310 C   0  0  0  0  0  0  0  0  0  0  0  0
  137.6367  149.3820  140.0914 C   0  0  0  0  0  0  0  0  0  0  0  0
  138.7469  150.9460  141.6721 C   0  0  0  0  0  0  0  0  0  0  0  0
  136.5600  149.6018  140.7937 C   0  0  0  0  0  0  0  0  0  0  0  0
  137.6794  151.0376  142.4893 C   0  0  0  0  0  0  0  0  0  0  0  0
  135.2447  149.0952  140.3661 C   0  0  0  0  0  0  0  0  0  0  0  0
  136.4864  150.4086  142.0488 C   0  0  0  0  0  0  0  0  0  0  0  0
  137.7293  151.7595  144.0248 Cl  0  0  0  0  0  0  0  0  0  0  0  0
  1  2  1  0
  2  3  2  0
  2  4  1  0
  3  5  1  0
  4  6  2  0
  5  7  1  0
  5  8  2  0
  6  8  1  0
  6  9  1  0
M  END
$$$$

     RDKit          3D

  9  9  0  0  0  0  0  0  0  0999 V2000
  139.3429  149.9930  140.5895 C   0  0  0  0  0  0  0  0  0  0  0  0
  138.9526  149.9228  139.3665 C   0  0  0  0  0  0  0  0  0  0  0  0
  138.6128  150.1151  141.6415 C   0  0  0  0  0  0  0  0  0  0  0  0
  137.1849  149.8640  141.8304 C   0  0  0  0  0  0  0  0  0  0  0  0
  136.5144  149.7572  140.5779 C   0  0  0  0  0  0  0  0  0  0  0  0
  135.0843  149.6706  140.4090 C   0  0  0  0  0  0  0  0  0  0  0  0
  137.3463  149.7256  139.2856 C   0  0  0  0  0  0  0  0  0  0  0  0
  139.2451  150.6099  143.1547 C   0  0  0  0  0  0  0  0  0  0  0  0
  138.3343  151.3035  143.8750 C   0  0  0  0  0  0  0  0  0  0  0  0
  1  2  2  0
  1  3  1  0
  3  4  1  0
  4  5  2  0
  5  6  1  0
  2  7  1  0
  5  7  1  0
  3  8  1  0
  8  9  1  0
M  END
$$$$

     RDKit          3D

  9  9  0  0  0  0  0  0  0  0999 V2000
  140.3024  150.2148  139.4796 Cl  0  0  0  0  0  0  0  0  0  0  0  0
  138.6763  150.1843  140.5310 C   0  0  0  0  0  0  0  0  0  0  0  0
  137.6367  149.3820  140.0914 C   0  0  0  0  0  0  0  0  0  0  0  0
  138.7708  150.9257  141.6508 C   0  0  0  0  0  0  0  0  0  0  0  0
  138.1273  150.9125  142.4396 C   0  0  0  0  0  0  0  0  0  0  0  0
  136.6299  149.5537  140.9779 C   0  0  0  0  0  0  0  0  0  0  0  0
  138.2522  151.5909  143.8342 C   0  0  0  0  0  0  0  0  0  0  0  0
  135.2959  149.1033  140.6983 C   0  0  0  0  0  0  0  0  0  0  0  0
  136.7767  150.2883  142.3151 C   0  0  0  0  0  0  0  0  0  0  0  0
  1  2  1  0
  2  3  1  0
  2  4  2  0
  4  5  1  0
  3  6  2  0
  5  7  1  0
  6  8  1  0
  5  9  2  0
  6  9  1  0
M  END
$$$$

     RDKit          3D

  9  9  0  0  0  0  0  0  0  0999 V2000
  139.3429  149.9930  140.5895 C   0  0  0  0  0  0  0  0  0  0  0  0
  138.9526  149.9228  139.3665 C   0  0  0  0  0  0  0  0  0  0  0  0
  138.6128  150.1151  141.6415 C   0  0  0  0  0  0  0  0  0  0  0  0
  137.5731  149.8751  139.0603 C   0  0  0  0  0  0  0  0  0  0  0  0
  137.0927  149.4986  137.8152 O   0  0  0  0  0  0  0  0  0  0  0  0
  136.6873  149.8542  140.1889 C   0  0  0  0  0  0  0  0  0  0  0  0
  135.2525  149.8795  140.0769 C   0  0  0  0  0  0  0  0  0  0  0  0
  137.3864  150.1212  141.7046 C   0  0  0  0  0  0  0  0  0  0  0  0
  139.2229  150.4410  143.2818 Cl  0  0  0  0  0  0  0  0  0  0  0  0
  1  2  2  0
  1  3  1  0
  2  4  1  0
  4  5  1  0
  4  6  2  0
  6  7  1  0
  3  8  2  0
  6  8  1  0
  3  9  1  0
M  END
$$$$

     RDKit          3D

  9 10  0  0  0  0  0  0  0  0999 V2000
  138.7091  151.1474  142.6274 C   0  0  0  0  0  0  0  0  0  0  0  0
  138.5250  151.9378  143.5111 C   0  0  0  0  0  0  0  0  0  0  0  0
  137.3808  151.6590  144.3960 C   0  0  0  0  0  0  0  0  0  0  0  0
  139.6671  150.9842  141.6902 C   0  0  0  0  0  0  0  0  0  0  0  0
  136.7223  150.4781  143.9637 C   0  0  0  0  0  0  0  0  0  0  0  0
  137.6952  150.0834  142.3787 C   0  0  0  0  0  0  0  0  0  0  0  0
  138.0473  149.3792  141.0795 C   0  0  0  0  0  0  0  0  0  0  0  0
  136.7644  149.8517  143.1532 C   0  0  0  0  0  0  0  0  0  0  0  0
  139.2840  150.0047  140.5771 C   0  0  0  0  0  0  0  0  0  0  0  0
  1  2  1  0
  2  3  2  0
  1  4  1  0
  3  5  1  0
  1  6  2  0
  6  7  1  0
  5  8  2  0
  6  8  1  0
  4  9  2  0
  7  9  1  0
M  END
$$$$

     RDKit          3D

  9  9  0  0  0  0  0  0  0  0999 V2000
  140.3024  150.2148  139.4796 Cl  0  0  0  0  0  0  0  0  0  0  0  0
  138.6763  150.1843  140.5310 C   0  0  0  0  0  0  0  0  0  0  0  0
  137.6367  149.3820  140.0914 C   0  0  0  0  0  0  0  0  0  0  0  0
  137.5434  148.9630  138.7426 C   0  0  0  0  0  0  0  0  0  0  0  0
  138.4840  150.4347  141.7160 C   0  0  0  0  0  0  0  0  0  0  0  0
  136.5057  149.4969  140.9388 C   0  0  0  0  0  0  0  0  0  0  0  0
  135.2192  149.1102  140.4056 C   0  0  0  0  0  0  0  0  0  0  0  0
  139.5628  151.1172  142.7011 C   0  0  0  0  0  0  0  0  0  0  0  0
  136.9611  150.1487  141.9543 C   0  0  0  0  0  0  0  0  0  0  0  0
  1  2  1  0
  2  3  2  0
  3  4  1  0
  2  5  1  0
  3  6  1  0
  6  7  1  0
  5  8  1  0
  5  9  2  0
  6  9  2  0
M  END
$$$$

     RDKit          3D

  9  9  0  0  0  0  0  0  0  0999 V2000
  138.7250  151.5761  143.3186 C   0  0  0  0  0  0  0  0  0  0  0  0
  137.9190  152.3260  143.7534 C   0  0  0  0  0  0  0  0  0  0  0  0
  136.7518  151.8065  144.4377 C   0  0  0  0  0  0  0  0  0  0  0  0
  136.7830  150.4602  144.6806 C   0  0  0  0  0  0  0  0  0  0  0  0
  135.8624  152.6133  145.2351 C   0  0  0  0  0  0  0  0  0  0  0  0
  138.4719  150.1666  143.2048 C   0  0  0  0  0  0  0  0  0  0  0  0
  139.3382  149.2634  142.4993 C   0  0  0  0  0  0  0  0  0  0  0  0
  137.4852  149.6207  144.0363 C   0  0  0  0  0  0  0  0  0  0  0  0
  134.6723  152.1334  145.8004 C   0  0  0  0  0  0  0  0  0  0  0  0
  1  2  1  0
  2  3  2  0
  3  4  1  0
  3  5  1  0
  1  6  2  0
  6  7  1  0
  4  8  2  0
  6  8  1  0
  5  9  1  0
M  END
$$$$

     RDKit          3D

  9  9  0  0  0  0  0  0  0  0999 V2000
  138.9700  151.3143  142.5679 C   0  0  0  0  0  0  0  0  0  0  0  0
  138.6023  152.0885  143.2650 C   0  0  0  0  0  0  0  0  0  0  0  0
  137.4866  151.7382  144.1969 C   0  0  0  0  0  0  0  0  0  0  0  0
  139.9970  151.3974  141.4279 C   0  0  0  0  0  0  0  0  0  0  0  0
  138.4037  150.0644  142.3753 C   0  0  0  0  0  0  0  0  0  0  0  0
  137.0294  150.4899  144.0456 C   0  0  0  0  0  0  0  0  0  0  0  0
  137.4133  149.5786  143.2640 C   0  0  0  0  0  0  0  0  0  0  0  0
  136.9258  152.8266  145.2830 C   0  0  0  0  0  0  0  0  0  0  0  0
  139.7414  150.8295  140.2320 C   0  0  0  0  0  0  0  0  0  0  0  0
  1  2  1  0
  2  3  2  0
  1  4  1  0
  1  5  2  0
  3  6  1  0
  5  7  1  0
  6  7  2  0
  3  8  1  0
  4  9  2  0
M  END
$$$$

     RDKit          3D

  9  9  0  0  0  0  0  0  0  0999 V2000
  138.7250  151.5761  143.3186 C   0  0  0  0  0  0  0  0  0  0  0  0
  137.9190  152.3260  143.7534 C   0  0  0  0  0  0  0  0  0  0  0  0
  136.7518  151.8065  144.4377 C   0  0  0  0  0  0  0  0  0  0  0  0
  138.5742  150.7615  142.3609 C   0  0  0  0  0  0  0  0  0  0  0  0
  136.5038  150.5082  144.1692 C   0  0  0  0  0  0  0  0  0  0  0  0
  137.6908  149.6618  142.4391 C   0  0  0  0  0  0  0  0  0  0  0  0
  135.7142  152.3193  145.4312 C   0  0  0  0  0  0  0  0  0  0  0  0
  136.9288  149.5900  143.1801 C   0  0  0  0  0  0  0  0  0  0  0  0
  139.7766  150.4856  141.3469 C   0  0  0  0  0  0  0  0  0  0  0  0
  1  2  1  0
  2  3  2  0
  1  4  2  0
  3  5  1  0
  4  6  1  0
  3  7  1  0
  5  8  1  0
  6  8  1  0
  4  9  1  0
M  END
$$$$

     RDKit          3D

  9  9  0  0  0  0  0  0  0  0999 V2000
  140.3024  150.2148  139.4796 Cl  0  0  0  0  0  0  0  0  0  0  0  0
  138.6763  150.1843  140.5310 C   0  0  0  0  0  0  0  0  0  0  0  0
  137.6367  149.3820  140.0914 C   0  0  0  0  0  0  0  0  0  0  0  0
  137.5434  148.9630  138.7426 C   0  0  0  0  0  0  0  0  0  0  0  0
  138.4840  150.4347  141.7160 C   0  0  0  0  0  0  0  0  0  0  0  0
  136.5057  149.4969  140.9388 C   0  0  0  0  0  0  0  0  0  0  0  0
  135.2192  149.1102  140.4056 C   0  0  0  0  0  0  0  0  0  0  0  0
  137.2539  150.2981  142.3301 C   0  0  0  0  0  0  0  0  0  0  0  0
  139.6551  151.0132  142.6190 C   0  0  0  0  0  0  0  0  0  0  0  0
  1  2  1  0
  2  3  2  0
  3  4  1  0
  2  5  1  0
  3  6  1  0
  6  7  1  0
  5  8  1  0
  6  8  2  0
  5  9  1  0
M  END
$$$$

     RDKit          3D

  9  9  0  0  0  0  0  0  0  0999 V2000
  140.3024  150.2148  139.4796 Cl  0  0  0  0  0  0  0  0  0  0  0  0
  138.6763  150.1843  140.5310 C   0  0  0  0  0  0  0  0  0  0  0  0
  137.6367  149.3820  140.0914 C   0  0  0  0  0  0  0  0  0  0  0  0
  138.7469  150.9460  141.6721 C   0  0  0  0  0  0  0  0  0  0  0  0
  137.7520  150.8717  142.6252 C   0  0  0  0  0  0  0  0  0  0  0  0
  136.6300  150.0366  142.2586 C   0  0  0  0  0  0  0  0  0  0  0  0
  137.5250  148.8222  138.8916 C   0  0  0  0  0  0  0  0  0  0  0  0
  138.0422  151.6459  143.9086 C   0  0  0  0  0  0  0  0  0  0  0  0
  136.4421  149.5518  141.0436 C   0  0  0  0  0  0  0  0  0  0  0  0
  1  2  1  0
  2  3  2  0
  2  4  1  0
  4  5  2  0
  5  6  1  0
  3  7  1  0
  5  8  1  0
  3  9  1  0
  6  9  2  0
M  END
$$$$

     RDKit          3D

  9  9  0  0  0  0  0  0  0  0999 V2000
  138.9700  151.3143  142.5679 C   0  0  0  0  0  0  0  0  0  0  0  0
  138.6023  152.0885  143.2650 C   0  0  0  0  0  0  0  0  0  0  0  0
  137.6696  151.8114  144.0578 C   0  0  0  0  0  0  0  0  0  0  0  0
  138.4237  149.9016  142.6323 C   0  0  0  0  0  0  0  0  0  0  0  0
  137.0742  152.8246  144.9926 C   0  0  0  0  0  0  0  0  0  0  0  0
  137.0068  150.5611  144.2187 C   0  0  0  0  0  0  0  0  0  0  0  0
  140.0505  151.4759  141.4478 C   0  0  0  0  0  0  0  0  0  0  0  0
  136.0508  150.2857  145.2562 C   0  0  0  0  0  0  0  0  0  0  0  0
  137.4417  149.5000  143.4769 C   0  0  0  0  0  0  0  0  0  0  0  0
  1  2  2  0
  2  3  1  0
  1  4  1  0
  3  5  1  0
  3  6  2  0
  1  7  1  0
  6  8  1  0
  4  9  2  0
  6  9  1  0
M  END
$$$$

     RDKit          3D

  9  8  0  0  0  0  0  0  0  0999 V2000
  138.9700  151.3143  142.5679 C   0  0  0  0  0  0  0  0  0  0  0  0
  138.6023  152.0885  143.2650 C   0  0  0  0  0  0  0  0  0  0  0  0
  139.7634  151.4680  141.3543 C   0  0  0  0  0  0  0  0  0  0  0  0
  137.7631  151.7028  144.3624 C   0  0  0  0  0  0  0  0  0  0  0  0
  136.8770  152.4872  145.1644 C   0  0  0  0  0  0  0  0  0  0  0  0
  137.0816  153.7997  145.1256 C   0  0  0  0  0  0  0  0  0  0  0  0
  139.6552  150.5024  140.1980 C   0  0  0  0  0  0  0  0  0  0  0  0
  136.0367  151.9419  145.6947 C   0  0  0  0  0  0  0  0  0  0  0  0
  134.7090  152.4422  145.8080 C   0  0  0  0  0  0  0  0  0  0  0  0
  1  2  1  0
  1  3  1  0
  2  4  2  3
  4  5  1  0
  5  6  1  0
  3  7  1  0
  5  8  2  3
  8  9  1  0
M  END
$$$$

     RDKit          3D

  9  9  0  0  0  0  0  0  0  0999 V2000
  138.7250  151.5761  143.3186 C   0  0  0  0  0  0  0  0  0  0  0  0
  137.9190  152.3260  143.7534 C   0  0  0  0  0  0  0  0  0  0  0  0
  136.7518  151.8065  144.4377 C   0  0  0  0  0  0  0  0  0  0  0  0
  138.5742  150.7615  142.3609 C   0  0  0  0  0  0  0  0  0  0  0  0
  136.5038  150.5082  144.1692 C   0  0  0  0  0  0  0  0  0  0  0  0
  135.8723  152.6495  145.3057 C   0  0  0  0  0  0  0  0  0  0  0  0
  137.4501  149.8077  142.6524 C   0  0  0  0  0  0  0  0  0  0  0  0
  136.6217  149.6680  143.4529 C   0  0  0  0  0  0  0  0  0  0  0  0
  139.3861  150.8268  141.1458 C   0  0  0  0  0  0  0  0  0  0  0  0
  1  2  1  0
  2  3  2  0
  1  4  2  0
  3  5  1  0
  3  6  1  0
  4  7  1  0
  5  8  1  0
  7  8  2  0
  4  9  1  0
M  END
$$$$

     RDKit          3D

  9  9  0  0  0  0  0  0  0  0999 V2000
  138.7250  151.5761  143.3186 C   0  0  0  0  0  0  0  0  0  0  0  0
  137.9190  152.3260  143.7534 C   0  0  0  0  0  0  0  0  0  0  0  0
  136.7518  151.8065  144.4377 C   0  0  0  0  0  0  0  0  0  0  0  0
  136.7830  150.4602  144.6806 C   0  0  0  0  0  0  0  0  0  0  0  0
  138.6223  150.0966  143.3696 C   0  0  0  0  0  0  0  0  0  0  0  0
  139.5765  149.2578  142.7736 C   0  0  0  0  0  0  0  0  0  0  0  0
  135.7217  152.7192  144.9496 C   0  0  0  0  0  0  0  0  0  0  0  0
  137.7886  149.6314  144.1031 N   0  0  0  0  0  0  0  0  0  0  0  0
  134.5461  152.3128  145.6888 C   0  0  0  0  0  0  0  0  0  0  0  0
  1  2  1  0
  2  3  2  0
  3  4  1  0
  1  5  2  0
  5  6  1  0
  3  7  1  0
  4  8  2  0
  5  8  1  0
  7  9  1  0
M  END
$$$$

     RDKit          3D

  9  9  0  0  0  0  0  0  0  0999 V2000
  138.7091  151.1474  142.6274 C   0  0  0  0  0  0  0  0  0  0  0  0
  138.5250  151.9378  143.5111 C   0  0  0  0  0  0  0  0  0  0  0  0
  137.3909  151.8085  144.0743 C   0  0  0  0  0  0  0  0  0  0  0  0
  136.5966  150.6180  143.9743 C   0  0  0  0  0  0  0  0  0  0  0  0
  137.9826  149.9619  142.2566 C   0  0  0  0  0  0  0  0  0  0  0  0
  136.5070  152.7496  145.0872 C   0  0  0  0  0  0  0  0  0  0  0  0
  136.8340  153.9868  145.0824 C   0  0  0  0  0  0  0  0  0  0  0  0
  136.9263  149.7114  142.9935 C   0  0  0  0  0  0  0  0  0  0  0  0
  135.8369  152.2015  145.6827 O   0  0  0  0  0  0  0  0  0  0  0  0
  1  2  1  0
  2  3  2  0
  3  4  1  0
  1  5  2  0
  3  6  1  0
  6  7  1  0
  4  8  2  0
  5  8  1  0
  6  9  2  0
M  END
$$$$

     RDKit          3D

  9  9  0  0  0  0  0  0  0  0999 V2000
  139.3429  149.9930  140.5895 C   0  0  0  0  0  0  0  0  0  0  0  0
  138.9526  149.9228  139.3665 C   0  0  0  0  0  0  0  0  0  0  0  0
  138.6128  150.1151  141.6415 C   0  0  0  0  0  0  0  0  0  0  0  0
  137.1849  149.8640  141.8304 C   0  0  0  0  0  0  0  0  0  0  0  0
  136.4671  150.2714  142.9634 C   0  0  0  0  0  0  0  0  0  0  0  0
  137.3909  150.8172  143.7392 C   0  0  0  0  0  0  0  0  0  0  0  0
  138.8855  150.6115  142.9979 C   0  0  0  0  0  0  0  0  0  0  0  0
  137.3047  151.3927  144.6720 O   0  0  0  0  0  0  0  0  0  0  0  0
  140.7161  150.4280  140.6829 C   0  0  0  0  0  0  0  0  0  0  0  0
  1  2  2  0
  1  3  1  0
  3  4  1  0
  4  5  2  0
  5  6  1  0
  3  7  1  0
  6  7  1  0
  6  8  2  0
  1  9  1  0
M  END
$$$$

     RDKit          3D

  9 10  0  0  0  0  0  0  0  0999 V2000
  139.3429  149.9930  140.5895 C   0  0  0  0  0  0  0  0  0  0  0  0
  138.9526  149.9228  139.3665 C   0  0  0  0  0  0  0  0  0  0  0  0
  138.6128  150.1151  141.6415 C   0  0  0  0  0  0  0  0  0  0  0  0
  137.1849  149.8640  141.8304 C   0  0  0  0  0  0  0  0  0  0  0  0
  136.5144  149.7572  140.5779 C   0  0  0  0  0  0  0  0  0  0  0  0
  139.1166  150.5253  143.0849 C   0  0  0  0  0  0  0  0  0  0  0  0
  138.2341  151.1490  143.8701 C   0  0  0  0  0  0  0  0  0  0  0  0
  136.7763  150.4474  143.0471 C   0  0  0  0  0  0  0  0  0  0  0  0
  137.4198  149.6636  139.2454 C   0  0  0  0  0  0  0  0  0  0  0  0
  1  2  2  0
  1  3  1  0
  3  4  1  0
  4  5  2  0
  3  6  1  0
  6  7  2  0
  4  8  1  0
  7  8  1  0
  2  9  1  0
  5  9  1  0
M  END
$$$$

     RDKit          3D

  9  9  0  0  0  0  0  0  0  0999 V2000
  139.0001  149.7643  140.3654 C   0  0  0  0  0  0  0  0  0  0  0  0
  138.7141  149.5451  139.1252 C   0  0  0  0  0  0  0  0  0  0  0  0
  138.1592  150.0995  141.2821 C   0  0  0  0  0  0  0  0  0  0  0  0
  137.3238  149.5788  138.6759 C   0  0  0  0  0  0  0  0  0  0  0  0
  137.0151  149.1362  137.4394 O   0  0  0  0  0  0  0  0  0  0  0  0
  136.3858  149.5936  139.3472 C   0  0  0  0  0  0  0  0  0  0  0  0
  135.0528  149.6286  139.2752 C   0  0  0  0  0  0  0  0  0  0  0  0
  138.5598  150.4914  142.6508 C   0  0  0  0  0  0  0  0  0  0  0  0
  136.8067  150.0465  140.9950 C   0  0  0  0  0  0  0  0  0  0  0  0
  1  2  2  0
  1  3  1  0
  2  4  1  0
  4  5  1  0
  4  6  2  0
  6  7  1  0
  3  8  1  0
  3  9  2  0
  6  9  1  0
M  END
$$$$

     RDKit          3D

  9  9  0  0  0  0  0  0  0  0999 V2000
  139.2620  151.0920  142.4042 C   0  0  0  0  0  0  0  0  0  0  0  0
  138.8619  152.1309  142.9034 C   0  0  0  0  0  0  0  0  0  0  0  0
  137.7834  151.8925  143.8932 C   0  0  0  0  0  0  0  0  0  0  0  0
  140.0678  150.9649  141.1539 C   0  0  0  0  0  0  0  0  0  0  0  0
  137.3612  150.4927  143.9586 C   0  0  0  0  0  0  0  0  0  0  0  0
  138.6091  149.8559  142.5429 C   0  0  0  0  0  0  0  0  0  0  0  0
  136.3302  150.3466  145.1098 C   0  0  0  0  0  0  0  0  0  0  0  0
  137.7361  149.4946  143.5021 N   0  0  0  0  0  0  0  0  0  0  0  0
  140.1421  150.8167  140.0297 C   0  0  0  0  0  0  0  0  0  0  0  0
  1  2  1  0
  2  3  2  0
  1  4  1  0
  3  5  1  0
  1  6  2  0
  5  7  1  0
  5  8  2  0
  6  8  1  0
  4  9  3  0
M  END
$$$$

     RDKit          3D

  9  9  0  0  0  0  0  0  0  0999 V2000
  138.7250  151.5761  143.3186 C   0  0  0  0  0  0  0  0  0  0  0  0
  137.9190  152.3260  143.7534 C   0  0  0  0  0  0  0  0  0  0  0  0
  136.7518  151.8065  144.4377 C   0  0  0  0  0  0  0  0  0  0  0  0
  136.7830  150.4602  144.6806 C   0  0  0  0  0  0  0  0  0  0  0  0
  135.6809  152.5421  145.0268 C   0  0  0  0  0  0  0  0  0  0  0  0
  138.4873  150.1701  143.2481 C   0  0  0  0  0  0  0  0  0  0  0  0
  137.6610  149.5676  144.0954 C   0  0  0  0  0  0  0  0  0  0  0  0
  134.6414  151.9918  145.7393 C   0  0  0  0  0  0  0  0  0  0  0  0
  135.6873  153.9276  144.8563 C   0  0  0  0  0  0  0  0  0  0  0  0
  1  2  1  0
  2  3  2  0
  3  4  1  0
  3  5  1  0
  1  6  2  0
  4  7  2  0
  6  7  1  0
  5  8  1  0
  5  9  2  0
M  END
$$$$

     RDKit          3D

  9  9  0  0  0  0  0  0  0  0999 V2000
  139.5345  150.8917  142.2314 C   0  0  0  0  0  0  0  0  0  0  0  0
  139.0136  150.3975  141.0588 C   0  0  0  0  0  0  0  0  0  0  0  0
  138.6967  150.9489  143.4038 C   0  0  0  0  0  0  0  0  0  0  0  0
  137.7126  149.9443  141.0453 C   0  0  0  0  0  0  0  0  0  0  0  0
  137.3879  150.5377  143.3311 C   0  0  0  0  0  0  0  0  0  0  0  0
  136.8221  150.1196  142.4161 C   0  0  0  0  0  0  0  0  0  0  0  0
  139.8764  150.3677  139.7286 C   0  0  0  0  0  0  0  0  0  0  0  0
  136.5533  150.7433  144.8789 Cl  0  0  0  0  0  0  0  0  0  0  0  0
  139.3134  150.3502  138.5943 C   0  0  0  0  0  0  0  0  0  0  0  0
  1  2  2  0
  1  3  1  0
  2  4  1  0
  3  5  2  0
  4  6  2  0
  5  6  1  0
  2  7  1  0
  5  8  1  0
  7  9  2  0
M  END
$$$$

     RDKit          3D

  9  9  0  0  0  0  0  0  0  0999 V2000
  139.2620  151.0920  142.4042 C   0  0  0  0  0  0  0  0  0  0  0  0
  138.8619  152.1309  142.9034 C   0  0  0  0  0  0  0  0  0  0  0  0
  137.9125  151.7980  143.7817 C   0  0  0  0  0  0  0  0  0  0  0  0
  138.8290  150.4014  141.6007 C   0  0  0  0  0  0  0  0  0  0  0  0
  137.6686  149.9547  141.7571 C   0  0  0  0  0  0  0  0  0  0  0  0
  136.8806  149.2152  140.7428 C   0  0  0  0  0  0  0  0  0  0  0  0
  136.7394  150.9822  143.2806 C   0  0  0  0  0  0  0  0  0  0  0  0
  135.5739  151.3039  144.2631 C   0  0  0  0  0  0  0  0  0  0  0  0
  136.7143  150.1795  142.3428 C   0  0  0  0  0  0  0  0  0  0  0  0
  1  2  1  0
  2  3  2  0
  1  4  2  0
  4  5  1  0
  5  6  1  0
  3  7  1  0
  7  8  1  0
  5  9  1  0
  7  9  1  0
M  END
$$$$

     RDKit          3D

  9  9  0  0  0  0  0  0  0  0999 V2000
  139.2620  151.0920  142.4042 C   0  0  0  0  0  0  0  0  0  0  0  0
  138.8619  152.1309  142.9034 C   0  0  0  0  0  0  0  0  0  0  0  0
  137.7834  151.8925  143.8932 C   0  0  0  0  0  0  0  0  0  0  0  0
  140.0678  150.9649  141.1539 C   0  0  0  0  0  0  0  0  0  0  0  0
  137.3612  150.4927  143.9586 C   0  0  0  0  0  0  0  0  0  0  0  0
  138.6091  149.8559  142.5429 C   0  0  0  0  0  0  0  0  0  0  0  0
  136.3302  150.3466  145.1098 C   0  0  0  0  0  0  0  0  0  0  0  0
  137.7785  149.4745  143.3600 N   0  0  0  0  0  0  0  0  0  0  0  0
  140.1541  150.8083  140.0315 C   0  0  0  0  0  0  0  0  0  0  0  0
  1  2  1  0
  2  3  2  0
  1  4  1  0
  3  5  1  0
  1  6  2  0
  5  7  1  0
  5  8  2  0
  6  8  1  0
  4  9  2  0
M  END
$$$$

     RDKit          3D

  9  9  0  0  0  0  0  0  0  0999 V2000
  138.7250  151.5761  143.3186 C   0  0  0  0  0  0  0  0  0  0  0  0
  137.9190  152.3260  143.7534 C   0  0  0  0  0  0  0  0  0  0  0  0
  136.7518  151.8065  144.4377 C   0  0  0  0  0  0  0  0  0  0  0  0
  138.5742  150.7615  142.3609 C   0  0  0  0  0  0  0  0  0  0  0  0
  136.5038  150.5082  144.1692 C   0  0  0  0  0  0  0  0  0  0  0  0
  137.6908  149.6618  142.4391 C   0  0  0  0  0  0  0  0  0  0  0  0
  136.7014  149.6006  143.3437 C   0  0  0  0  0  0  0  0  0  0  0  0
  139.4570  150.9242  141.0505 C   0  0  0  0  0  0  0  0  0  0  0  0
  135.8727  152.7455  145.4686 C   0  0  0  0  0  0  0  0  0  0  0  0
  1  2  1  0
  2  3  2  0
  1  4  2  0
  3  5  1  0
  4  6  1  0
  5  7  2  0
  6  7  2  0
  4  8  1  0
  3  9  1  0
M  END
$$$$

     RDKit          3D

 10 11  0  0  0  0  0  0  0  0999 V2000
  139.5546  150.5076  140.4455 C   0  0  0  0  0  0  0  0  0  0  0  0
  139.2164  150.0146  139.3742 C   0  0  0  0  0  0  0  0  0  0  0  0
  138.8577  150.3073  141.5866 C   0  0  0  0  0  0  0  0  0  0  0  0
  139.2276  150.3508  142.8915 C   0  0  0  0  0  0  0  0  0  0  0  0
  138.5491  151.2697  143.6827 C   0  0  0  0  0  0  0  0  0  0  0  0
  137.8571  149.4543  139.3226 C   0  0  0  0  0  0  0  0  0  0  0  0
  137.4457  151.5292  143.4243 C   0  0  0  0  0  0  0  0  0  0  0  0
  136.7754  151.2096  142.2506 C   0  0  0  0  0  0  0  0  0  0  0  0
  137.4194  150.4401  141.4077 C   0  0  0  0  0  0  0  0  0  0  0  0
  136.8661  149.8054  140.2954 C   0  0  0  0  0  0  0  0  0  0  0  0
  1  2  2  0
  1  3  1  0
  3  4  1  0
  4  5  2  0
  2  6  1  0
  5  7  1  0
  7  8  2  0
  3  9  2  0
  8  9  1  0
  6 10  2  0
  9 10  1  0
M  END
$$$$

     RDKit          3D

 10 10  0  0  0  0  0  0  0  0999 V2000
  139.3946  150.7519  142.0139 C   0  0  0  0  0  0  0  0  0  0  0  0
  139.0647  150.4900  140.7537 C   0  0  0  0  0  0  0  0  0  0  0  0
  138.4477  150.6373  143.0427 C   0  0  0  0  0  0  0  0  0  0  0  0
  137.8331  149.9847  140.4384 C   0  0  0  0  0  0  0  0  0  0  0  0
  136.8172  149.7858  141.4639 C   0  0  0  0  0  0  0  0  0  0  0  0
  138.7924  151.0563  144.4369 C   0  0  0  0  0  0  0  0  0  0  0  0
  137.7738  151.8330  144.9215 C   0  0  0  0  0  0  0  0  0  0  0  0
  137.0693  150.3283  142.7522 C   0  0  0  0  0  0  0  0  0  0  0  0
  136.8008  151.5962  145.8054 C   0  0  0  0  0  0  0  0  0  0  0  0
  140.1676  150.6534  139.5612 C   0  0  0  0  0  0  0  0  0  0  0  0
  1  2  2  0
  1  3  1  0
  2  4  1  0
  4  5  2  0
  3  6  1  0
  6  7  2  3
  3  8  2  0
  5  8  1  0
  7  9  1  0
  2 10  1  0
M  END
$$$$

     RDKit          3D

 10 11  0  0  0  0  0  0  0  0999 V2000
  139.3429  149.9930  140.5895 C   0  0  0  0  0  0  0  0  0  0  0  0
  138.9526  149.9228  139.3665 C   0  0  0  0  0  0  0  0  0  0  0  0
  138.6128  150.1151  141.6415 C   0  0  0  0  0  0  0  0  0  0  0  0
  137.1849  149.8640  141.8304 C   0  0  0  0  0  0  0  0  0  0  0  0
  136.5144  149.7572  140.5779 C   0  0  0  0  0  0  0  0  0  0  0  0
  139.1166  150.5253  143.0849 C   0  0  0  0  0  0  0  0  0  0  0  0
  138.1694  151.0130  144.0451 C   0  0  0  0  0  0  0  0  0  0  0  0
  137.2175  149.6795  139.2586 C   0  0  0  0  0  0  0  0  0  0  0  0
  136.6024  150.3475  142.9876 N   0  0  0  0  0  0  0  0  0  0  0  0
  137.0058  150.7071  143.9930 C   0  0  0  0  0  0  0  0  0  0  0  0
  1  2  2  0
  1  3  1  0
  3  4  1  0
  4  5  2  0
  3  6  1  0
  6  7  2  0
  2  8  1  0
  5  8  1  0
  4  9  1  0
  7 10  1  0
  9 10  2  0
M  END
$$$$

     RDKit          3D

 10 10  0  0  0  0  0  0  0  0999 V2000
  139.2620  151.0920  142.4042 C   0  0  0  0  0  0  0  0  0  0  0  0
  138.8619  152.1309  142.9034 C   0  0  0  0  0  0  0  0  0  0  0  0
  137.9125  151.7980  143.7817 C   0  0  0  0  0  0  0  0  0  0  0  0
  138.8290  150.4014  141.6007 C   0  0  0  0  0  0  0  0  0  0  0  0
  137.6686  149.9547  141.7571 C   0  0  0  0  0  0  0  0  0  0  0  0
  137.5096  152.5999  144.9582 C   0  0  0  0  0  0  0  0  0  0  0  0
  136.8118  150.7640  143.7827 C   0  0  0  0  0  0  0  0  0  0  0  0
  136.3087  153.1095  145.0927 C   0  0  0  0  0  0  0  0  0  0  0  0
  135.3847  152.6797  146.1352 C   0  0  0  0  0  0  0  0  0  0  0  0
  136.6407  150.0398  142.6393 C   0  0  0  0  0  0  0  0  0  0  0  0
  1  2  1  0
  2  3  2  0
  1  4  2  0
  4  5  1  0
  3  6  1  0
  3  7  1  0
  6  8  1  0
  8  9  1  0
  5 10  2  0
  7 10  2  0
M  END
$$$$

     RDKit          3D

 10 11  0  0  0  0  0  0  0  0999 V2000
  139.2620  151.0920  142.4042 C   0  0  0  0  0  0  0  0  0  0  0  0
  138.8619  152.1309  142.9034 C   0  0  0  0  0  0  0  0  0  0  0  0
  137.9125  151.7980  143.7817 C   0  0  0  0  0  0  0  0  0  0  0  0
  138.7623  149.7969  142.5199 C   0  0  0  0  0  0  0  0  0  0  0  0
  137.2982  152.8723  144.6403 C   0  0  0  0  0  0  0  0  0  0  0  0
  136.2247  152.7762  145.1568 C   0  0  0  0  0  0  0  0  0  0  0  0
  137.3990  150.3717  143.9108 C   0  0  0  0  0  0  0  0  0  0  0  0
  136.3717  150.3353  144.9753 C   0  0  0  0  0  0  0  0  0  0  0  0
  135.7042  151.5340  145.6970 C   0  0  0  0  0  0  0  0  0  0  0  0
  137.8344  149.5657  143.4655 N   0  0  0  0  0  0  0  0  0  0  0  0
  1  2  1  0
  2  3  2  0
  1  4  2  0
  3  5  1  0
  5  6  2  0
  3  7  1  0
  7  8  2  0
  6  9  1  0
  8  9  1  0
  4 10  1  0
  7 10  1  0
M  END
$$$$

     RDKit          3D

 10 11  0  0  0  0  0  0  0  0999 V2000
  139.2620  151.0920  142.4042 C   0  0  0  0  0  0  0  0  0  0  0  0
  138.8619  152.1309  142.9034 C   0  0  0  0  0  0  0  0  0  0  0  0
  137.9125  151.7980  143.7817 C   0  0  0  0  0  0  0  0  0  0  0  0
  138.7623  149.7969  142.5199 C   0  0  0  0  0  0  0  0  0  0  0  0
  137.2982  152.8723  144.6403 C   0  0  0  0  0  0  0  0  0  0  0  0
  136.2247  152.7762  145.1568 C   0  0  0  0  0  0  0  0  0  0  0  0
  137.3990  150.3717  143.9108 C   0  0  0  0  0  0  0  0  0  0  0  0
  136.3717  150.3353  144.9753 C   0  0  0  0  0  0  0  0  0  0  0  0
  135.7537  151.5462  145.7199 C   0  0  0  0  0  0  0  0  0  0  0  0
  137.8761  149.5495  143.4547 N   0  0  0  0  0  0  0  0  0  0  0  0
  1  2  1  0
  2  3  2  0
  1  4  2  0
  3  5  1  0
  5  6  2  0
  3  7  1  0
  7  8  1  0
  6  9  1  0
  8  9  2  0
  4 10  1  0
  7 10  2  0
M  END
$$$$

     RDKit          3D

 10 10  0  0  0  0  0  0  0  0999 V2000
  139.0001  149.7643  140.3654 C   0  0  0  0  0  0  0  0  0  0  0  0
  138.7141  149.5451  139.1252 C   0  0  0  0  0  0  0  0  0  0  0  0
  138.1592  150.0995  141.2821 C   0  0  0  0  0  0  0  0  0  0  0  0
  137.3238  149.5788  138.6759 C   0  0  0  0  0  0  0  0  0  0  0  0
  136.4652  149.5465  139.6311 C   0  0  0  0  0  0  0  0  0  0  0  0
  138.5749  150.4933  142.6481 C   0  0  0  0  0  0  0  0  0  0  0  0
  137.6893  150.9670  143.6154 C   0  0  0  0  0  0  0  0  0  0  0  0
  134.9986  149.6151  139.3670 O   0  0  0  0  0  0  0  0  0  0  0  0
  136.7158  149.9321  141.0127 C   0  0  0  0  0  0  0  0  0  0  0  0
  138.2959  151.6295  144.7952 C   0  0  0  0  0  0  0  0  0  0  0  0
  1  2  2  0
  1  3  1  0
  2  4  1  0
  4  5  2  0
  3  6  1  0
  6  7  2  3
  5  8  1  0
  3  9  2  0
  5  9  1  0
  7 10  1  0
M  END
$$$$

     RDKit          3D

 10 10  0  0  0  0  0  0  0  0999 V2000
  138.7250  151.5761  143.3186 C   0  0  0  0  0  0  0  0  0  0  0  0
  137.9190  152.3260  143.7534 C   0  0  0  0  0  0  0  0  0  0  0  0
  136.7518  151.8065  144.4377 C   0  0  0  0  0  0  0  0  0  0  0  0
  138.5742  150.7615  142.3609 C   0  0  0  0  0  0  0  0  0  0  0  0
  136.5038  150.5082  144.1692 C   0  0  0  0  0  0  0  0  0  0  0  0
  137.6908  149.6618  142.4391 C   0  0  0  0  0  0  0  0  0  0  0  0
  135.8871  152.6741  145.2835 C   0  0  0  0  0  0  0  0  0  0  0  0
  136.7164  149.5470  143.2959 C   0  0  0  0  0  0  0  0  0  0  0  0
  139.7124  150.4913  141.1829 C   0  0  0  0  0  0  0  0  0  0  0  0
  134.8516  152.1164  146.0032 C   0  0  0  0  0  0  0  0  0  0  0  0
  1  2  1  0
  2  3  2  0
  1  4  2  0
  3  5  1  0
  4  6  1  0
  3  7  1  0
  5  8  2  0
  6  8  2  0
  4  9  1  0
  7 10  1  0
M  END
$$$$

     RDKit          3D

 10 10  0  0  0  0  0  0  0  0999 V2000
  138.7250  151.5761  143.3186 C   0  0  0  0  0  0  0  0  0  0  0  0
  137.9190  152.3260  143.7534 C   0  0  0  0  0  0  0  0  0  0  0  0
  136.7518  151.8065  144.4377 C   0  0  0  0  0  0  0  0  0  0  0  0
  138.5742  150.7615  142.3609 C   0  0  0  0  0  0  0  0  0  0  0  0
  136.5038  150.5082  144.1692 C   0  0  0  0  0  0  0  0  0  0  0  0
  137.6908  149.6618  142.4391 C   0  0  0  0  0  0  0  0  0  0  0  0
  136.6727  149.7129  143.4278 C   0  0  0  0  0  0  0  0  0  0  0  0
  136.0297  152.7035  145.3429 C   0  0  0  0  0  0  0  0  0  0  0  0
  139.6664  150.4888  141.2345 C   0  0  0  0  0  0  0  0  0  0  0  0
  136.3608  154.0215  145.5067 C   0  0  0  0  0  0  0  0  0  0  0  0
  1  2  1  0
  2  3  2  0
  1  4  2  0
  3  5  1  0
  4  6  1  0
  5  7  2  0
  6  7  1  0
  3  8  1  0
  4  9  1  0
  8 10  2  0
M  END
$$$$

     RDKit          3D

 10 10  0  0  0  0  0  0  0  0999 V2000
  139.5345  150.8917  142.2314 C   0  0  0  0  0  0  0  0  0  0  0  0
  139.0136  150.3975  141.0588 C   0  0  0  0  0  0  0  0  0  0  0  0
  138.6967  150.9489  143.4038 C   0  0  0  0  0  0  0  0  0  0  0  0
  137.7126  149.9443  141.0453 C   0  0  0  0  0  0  0  0  0  0  0  0
  137.3879  150.5377  143.3311 C   0  0  0  0  0  0  0  0  0  0  0  0
  136.8757  150.0562  142.1540 C   0  0  0  0  0  0  0  0  0  0  0  0
  136.4807  150.7354  144.7887 Cl  0  0  0  0  0  0  0  0  0  0  0  0
  139.9064  150.3882  139.7337 C   0  0  0  0  0  0  0  0  0  0  0  0
  141.2680  150.3898  139.9366 C   0  0  0  0  0  0  0  0  0  0  0  0
  139.4320  150.4172  138.8027 O   0  0  0  0  0  0  0  0  0  0  0  0
  1  2  2  0
  1  3  1  0
  2  4  1  0
  3  5  2  0
  4  6  2  0
  5  6  1  0
  5  7  1  0
  2  8  1  0
  8  9  1  0
  8 10  2  0
M  END
$$$$

     RDKit          3D

 10 11  0  0  0  0  0  0  0  0999 V2000
  139.2620  151.0920  142.4042 C   0  0  0  0  0  0  0  0  0  0  0  0
  138.8619  152.1309  142.9034 C   0  0  0  0  0  0  0  0  0  0  0  0
  137.9125  151.7980  143.7817 C   0  0  0  0  0  0  0  0  0  0  0  0
  138.8290  150.4014  141.6007 C   0  0  0  0  0  0  0  0  0  0  0  0
  137.6686  149.9547  141.7571 C   0  0  0  0  0  0  0  0  0  0  0  0
  137.5096  152.5999  144.9582 C   0  0  0  0  0  0  0  0  0  0  0  0
  136.8118  150.7640  143.7827 C   0  0  0  0  0  0  0  0  0  0  0  0
  135.9232  150.7938  144.8969 C   0  0  0  0  0  0  0  0  0  0  0  0
  136.6651  149.9595  142.7642 C   0  0  0  0  0  0  0  0  0  0  0  0
  136.2116  151.8922  145.6559 C   0  0  0  0  0  0  0  0  0  0  0  0
  1  2  1  0
  2  3  2  0
  1  4  2  0
  4  5  1  0
  3  6  1  0
  3  7  1  0
  7  8  2  0
  5  9  2  0
  7  9  1  0
  6 10  2  0
  8 10  1  0
M  END
$$$$

     RDKit          3D

 10 10  0  0  0  0  0  0  0  0999 V2000
  139.5546  150.5076  140.4455 C   0  0  0  0  0  0  0  0  0  0  0  0
  139.2164  150.0146  139.3742 C   0  0  0  0  0  0  0  0  0  0  0  0
  138.8577  150.3073  141.5866 C   0  0  0  0  0  0  0  0  0  0  0  0
  137.9802  149.2985  139.2390 C   0  0  0  0  0  0  0  0  0  0  0  0
  137.2016  149.2056  140.2784 C   0  0  0  0  0  0  0  0  0  0  0  0
  139.3293  150.8987  142.9149 C   0  0  0  0  0  0  0  0  0  0  0  0
  138.2961  151.0802  143.9342 C   0  0  0  0  0  0  0  0  0  0  0  0
  137.4957  149.7651  141.4756 C   0  0  0  0  0  0  0  0  0  0  0  0
  138.1847  152.2775  144.6596 C   0  0  0  0  0  0  0  0  0  0  0  0
  136.7410  152.6042  144.7816 C   0  0  0  0  0  0  0  0  0  0  0  0
  1  2  2  0
  1  3  1  0
  2  4  1  0
  4  5  2  0
  3  6  1  0
  6  7  2  3
  3  8  2  0
  5  8  1  0
  7  9  1  0
  9 10  1  0
M  END
$$$$

     RDKit          3D

 10 10  0  0  0  0  0  0  0  0999 V2000
  140.3024  150.2148  139.4796 Cl  0  0  0  0  0  0  0  0  0  0  0  0
  138.6763  150.1843  140.5310 C   0  0  0  0  0  0  0  0  0  0  0  0
  137.6367  149.3820  140.0914 C   0  0  0  0  0  0  0  0  0  0  0  0
  138.7708  150.9257  141.6508 C   0  0  0  0  0  0  0  0  0  0  0  0
  137.6808  150.8822  142.5406 C   0  0  0  0  0  0  0  0  0  0  0  0
  137.8325  151.5203  143.8899 C   0  0  0  0  0  0  0  0  0  0  0  0
  136.6872  151.6925  144.6937 C   0  0  0  0  0  0  0  0  0  0  0  0
  135.5367  151.0659  144.2046 C   0  0  0  0  0  0  0  0  0  0  0  0
  136.6636  150.0961  141.8631 C   0  0  0  0  0  0  0  0  0  0  0  0
  136.5847  149.5106  140.7705 C   0  0  0  0  0  0  0  0  0  0  0  0
  1  2  1  0
  2  3  1  0
  2  4  2  0
  4  5  1  0
  5  6  1  0
  6  7  2  3
  7  8  1  0
  5  9  2  0
  3 10  2  0
  9 10  1  0
M  END
$$$$

     RDKit          3D

 10 11  0  0  0  0  0  0  0  0999 V2000
  139.3429  149.9930  140.5895 C   0  0  0  0  0  0  0  0  0  0  0  0
  138.9526  149.9228  139.3665 C   0  0  0  0  0  0  0  0  0  0  0  0
  138.6128  150.1151  141.6415 C   0  0  0  0  0  0  0  0  0  0  0  0
  137.1849  149.8640  141.8304 C   0  0  0  0  0  0  0  0  0  0  0  0
  136.5144  149.7572  140.5779 C   0  0  0  0  0  0  0  0  0  0  0  0
  139.1166  150.5253  143.0849 C   0  0  0  0  0  0  0  0  0  0  0  0
  138.2341  151.1490  143.8701 C   0  0  0  0  0  0  0  0  0  0  0  0
  136.7763  150.4474  143.0471 C   0  0  0  0  0  0  0  0  0  0  0  0
  135.1534  149.5205  140.5422 C   0  0  0  0  0  0  0  0  0  0  0  0
  137.4007  149.6860  139.3659 C   0  0  0  0  0  0  0  0  0  0  0  0
  1  2  2  0
  1  3  1  0
  3  4  1  0
  4  5  2  0
  3  6  1  0
  6  7  2  0
  4  8  1  0
  7  8  1  0
  5  9  1  0
  2 10  1  0
  5 10  1  0
M  END
$$$$

     RDKit          3D

 10 11  0  0  0  0  0  0  0  0999 V2000
  139.3429  149.9930  140.5895 C   0  0  0  0  0  0  0  0  0  0  0  0
  138.9526  149.9228  139.3665 C   0  0  0  0  0  0  0  0  0  0  0  0
  138.6128  150.1151  141.6415 C   0  0  0  0  0  0  0  0  0  0  0  0
  137.1849  149.8640  141.8304 C   0  0  0  0  0  0  0  0  0  0  0  0
  136.5144  149.7572  140.5779 C   0  0  0  0  0  0  0  0  0  0  0  0
  139.1166  150.5253  143.0849 C   0  0  0  0  0  0  0  0  0  0  0  0
  138.2341  151.1490  143.8701 C   0  0  0  0  0  0  0  0  0  0  0  0
  136.7763  150.4474  143.0471 C   0  0  0  0  0  0  0  0  0  0  0  0
  139.6961  149.9168  138.1778 C   0  0  0  0  0  0  0  0  0  0  0  0
  137.0815  149.6829  139.2631 C   0  0  0  0  0  0  0  0  0  0  0  0
  1  2  2  0
  1  3  1  0
  3  4  1  0
  4  5  2  0
  3  6  1  0
  6  7  2  0
  4  8  1  0
  7  8  1  0
  2  9  1  0
  2 10  1  0
  5 10  1  0
M  END
$$$$

     RDKit          3D

 10 11  0  0  0  0  0  0  0  0999 V2000
  138.7091  151.1474  142.6274 C   0  0  0  0  0  0  0  0  0  0  0  0
  138.5250  151.9378  143.5111 C   0  0  0  0  0  0  0  0  0  0  0  0
  137.3808  151.6590  144.3960 C   0  0  0  0  0  0  0  0  0  0  0  0
  139.6671  150.9842  141.6902 C   0  0  0  0  0  0  0  0  0  0  0  0
  136.7223  150.4781  143.9637 C   0  0  0  0  0  0  0  0  0  0  0  0
  137.6952  150.0834  142.3787 C   0  0  0  0  0  0  0  0  0  0  0  0
  138.0473  149.3792  141.0795 C   0  0  0  0  0  0  0  0  0  0  0  0
  137.1656  148.9271  140.1912 C   0  0  0  0  0  0  0  0  0  0  0  0
  139.4539  150.0880  140.6105 C   0  0  0  0  0  0  0  0  0  0  0  0
  136.7469  149.7756  143.1666 C   0  0  0  0  0  0  0  0  0  0  0  0
  1  2  1  0
  2  3  2  0
  1  4  1  0
  3  5  1  0
  1  6  2  0
  6  7  1  0
  7  8  1  0
  4  9  1  0
  7  9  2  0
  5 10  2  0
  6 10  1  0
M  END
$$$$

     RDKit          3D

 10 10  0  0  0  0  0  0  0  0999 V2000
  139.3429  149.9930  140.5895 C   0  0  0  0  0  0  0  0  0  0  0  0
  138.9526  149.9228  139.3665 C   0  0  0  0  0  0  0  0  0  0  0  0
  138.6128  150.1151  141.6415 C   0  0  0  0  0  0  0  0  0  0  0  0
  137.1849  149.8640  141.8304 C   0  0  0  0  0  0  0  0  0  0  0  0
  136.5144  149.7572  140.5779 C   0  0  0  0  0  0  0  0  0  0  0  0
  135.0843  149.6706  140.4090 C   0  0  0  0  0  0  0  0  0  0  0  0
  137.3672  149.7345  139.3124 C   0  0  0  0  0  0  0  0  0  0  0  0
  140.8143  150.3343  140.7273 C   0  0  0  0  0  0  0  0  0  0  0  0
  139.0528  150.3458  143.0019 C   0  0  0  0  0  0  0  0  0  0  0  0
  138.3871  151.1322  143.8309 C   0  0  0  0  0  0  0  0  0  0  0  0
  1  2  2  0
  1  3  1  0
  3  4  1  0
  4  5  2  0
  5  6  1  0
  2  7  1  0
  5  7  1  0
  1  8  1  0
  3  9  2  3
  9 10  1  0
M  END
$$$$

     RDKit          3D

 10 10  0  0  0  0  0  0  0  0999 V2000
  139.5546  150.5076  140.4455 C   0  0  0  0  0  0  0  0  0  0  0  0
  139.2164  150.0146  139.3742 C   0  0  0  0  0  0  0  0  0  0  0  0
  138.8577  150.3073  141.5866 C   0  0  0  0  0  0  0  0  0  0  0  0
  137.9802  149.2985  139.2390 C   0  0  0  0  0  0  0  0  0  0  0  0
  137.2016  149.2056  140.2784 C   0  0  0  0  0  0  0  0  0  0  0  0
  139.3293  150.8987  142.9149 C   0  0  0  0  0  0  0  0  0  0  0  0
  138.3168  151.4614  143.6692 C   0  0  0  0  0  0  0  0  0  0  0  0
  137.5437  149.7990  141.5426 C   0  0  0  0  0  0  0  0  0  0  0  0
  137.6675  151.2764  144.6500 C   0  0  0  0  0  0  0  0  0  0  0  0
  136.5471  151.8968  145.0669 C   0  0  0  0  0  0  0  0  0  0  0  0
  1  2  2  0
  1  3  1  0
  2  4  1  0
  4  5  2  0
  3  6  1  0
  6  7  2  3
  3  8  2  0
  5  8  1  0
  7  9  1  0
  9 10  2  0
M  END
$$$$

     RDKit          3D

 10 11  0  0  0  0  0  0  0  0999 V2000
  138.7091  151.1474  142.6274 C   0  0  0  0  0  0  0  0  0  0  0  0
  138.5250  151.9378  143.5111 C   0  0  0  0  0  0  0  0  0  0  0  0
  137.3808  151.6590  144.3960 C   0  0  0  0  0  0  0  0  0  0  0  0
  139.6671  150.9842  141.6902 C   0  0  0  0  0  0  0  0  0  0  0  0
  136.7223  150.4781  143.9637 C   0  0  0  0  0  0  0  0  0  0  0  0
  137.7855  150.1127  142.3490 C   0  0  0  0  0  0  0  0  0  0  0  0
  138.1041  149.3710  141.0881 C   0  0  0  0  0  0  0  0  0  0  0  0
  139.6099  150.2285  140.5534 C   0  0  0  0  0  0  0  0  0  0  0  0
  140.1453  150.0859  139.5186 C   0  0  0  0  0  0  0  0  0  0  0  0
  136.7331  149.7571  143.1123 C   0  0  0  0  0  0  0  0  0  0  0  0
  1  2  1  0
  2  3  2  0
  1  4  1  0
  3  5  1  0
  1  6  2  0
  6  7  1  0
  4  8  1  0
  7  8  1  0
  8  9  2  0
  5 10  2  0
  6 10  1  0
M  END
$$$$

     RDKit          3D

 10 10  0  0  0  0  0  0  0  0999 V2000
  138.7250  151.5761  143.3186 C   0  0  0  0  0  0  0  0  0  0  0  0
  137.9190  152.3260  143.7534 C   0  0  0  0  0  0  0  0  0  0  0  0
  136.7518  151.8065  144.4377 C   0  0  0  0  0  0  0  0  0  0  0  0
  138.5742  150.7615  142.3609 C   0  0  0  0  0  0  0  0  0  0  0  0
  136.5038  150.5082  144.1692 C   0  0  0  0  0  0  0  0  0  0  0  0
  137.6908  149.6618  142.4391 C   0  0  0  0  0  0  0  0  0  0  0  0
  136.6727  149.7129  143.4278 C   0  0  0  0  0  0  0  0  0  0  0  0
  136.0297  152.7035  145.3429 C   0  0  0  0  0  0  0  0  0  0  0  0
  139.7179  150.3598  141.3084 C   0  0  0  0  0  0  0  0  0  0  0  0
  134.8634  152.2464  145.9646 C   0  0  0  0  0  0  0  0  0  0  0  0
  1  2  1  0
  2  3  2  0
  1  4  2  0
  3  5  1  0
  4  6  1  0
  5  7  2  0
  6  7  1  0
  3  8  1  0
  4  9  1  0
  8 10  1  0
M  END
$$$$

     RDKit          3D

 10 10  0  0  0  0  0  0  0  0999 V2000
  139.5345  150.8917  142.2314 C   0  0  0  0  0  0  0  0  0  0  0  0
  139.0136  150.3975  141.0588 C   0  0  0  0  0  0  0  0  0  0  0  0
  138.6967  150.9489  143.4038 C   0  0  0  0  0  0  0  0  0  0  0  0
  137.7126  149.9443  141.0453 C   0  0  0  0  0  0  0  0  0  0  0  0
  137.3879  150.5377  143.3311 C   0  0  0  0  0  0  0  0  0  0  0  0
  136.8293  150.0151  142.1591 C   0  0  0  0  0  0  0  0  0  0  0  0
  139.8184  150.3884  139.8608 C   0  0  0  0  0  0  0  0  0  0  0  0
  141.2270  150.3685  140.0113 C   0  0  0  0  0  0  0  0  0  0  0  0
  139.4322  150.4614  138.8326 O   0  0  0  0  0  0  0  0  0  0  0  0
  136.5222  150.7054  144.5107 C   0  0  0  0  0  0  0  0  0  0  0  0
  1  2  2  0
  1  3  1  0
  2  4  1  0
  3  5  2  0
  4  6  2  0
  5  6  1  0
  2  7  1  0
  7  8  1  0
  7  9  2  0
  5 10  1  0
M  END
$$$$

     RDKit          3D

 10 10  0  0  0  0  0  0  0  0999 V2000
  140.3024  150.2148  139.4796 Cl  0  0  0  0  0  0  0  0  0  0  0  0
  138.6763  150.1843  140.5310 C   0  0  0  0  0  0  0  0  0  0  0  0
  137.6367  149.3820  140.0914 C   0  0  0  0  0  0  0  0  0  0  0  0
  138.8646  150.7169  141.4514 C   0  0  0  0  0  0  0  0  0  0  0  0
  137.8185  150.8008  142.5159 C   0  0  0  0  0  0  0  0  0  0  0  0
  138.0478  151.4542  143.8200 C   0  0  0  0  0  0  0  0  0  0  0  0
  136.4323  149.6393  140.3175 C   0  0  0  0  0  0  0  0  0  0  0  0
  136.5005  150.3750  142.1274 C   0  0  0  0  0  0  0  0  0  0  0  0
  135.8620  149.9973  141.3979 C   0  0  0  0  0  0  0  0  0  0  0  0
  139.2532  151.4926  144.3645 C   0  0  0  0  0  0  0  0  0  0  0  0
  1  2  1  0
  2  3  2  0
  2  4  1  0
  4  5  2  0
  5  6  1  0
  3  7  1  0
  5  8  1  0
  7  9  2  0
  8  9  2  0
  6 10  2  0
M  END
$$$$

     RDKit          3D

 10 11  0  0  0  0  0  0  0  0999 V2000
  139.3429  149.9930  140.5895 C   0  0  0  0  0  0  0  0  0  0  0  0
  138.9526  149.9228  139.3665 C   0  0  0  0  0  0  0  0  0  0  0  0
  138.6128  150.1151  141.6415 C   0  0  0  0  0  0  0  0  0  0  0  0
  137.5731  149.8751  139.0603 C   0  0  0  0  0  0  0  0  0  0  0  0
  137.0927  149.4986  137.8152 C   0  0  0  0  0  0  0  0  0  0  0  0
  139.0049  150.5465  142.9880 C   0  0  0  0  0  0  0  0  0  0  0  0
  138.1933  151.3789  143.6837 C   0  0  0  0  0  0  0  0  0  0  0  0
  136.9028  151.4680  143.1554 C   0  0  0  0  0  0  0  0  0  0  0  0
  136.7362  150.0347  140.2659 C   0  0  0  0  0  0  0  0  0  0  0  0
  137.1919  150.3625  141.7850 C   0  0  0  0  0  0  0  0  0  0  0  0
  1  2  2  0
  1  3  1  0
  2  4  1  0
  4  5  1  0
  3  6  1  0
  6  7  2  0
  7  8  1  0
  4  9  2  0
  3 10  2  0
  8 10  1  0
  9 10  1  0
M  END
$$$$

     RDKit          3D

 10 11  0  0  0  0  0  0  0  0999 V2000
  138.7091  151.1474  142.6274 C   0  0  0  0  0  0  0  0  0  0  0  0
  138.5250  151.9378  143.5111 C   0  0  0  0  0  0  0  0  0  0  0  0
  137.3808  151.6590  144.3960 C   0  0  0  0  0  0  0  0  0  0  0  0
  139.6671  150.9842  141.6902 C   0  0  0  0  0  0  0  0  0  0  0  0
  136.7223  150.4781  143.9637 C   0  0  0  0  0  0  0  0  0  0  0  0
  137.6952  150.0834  142.3787 C   0  0  0  0  0  0  0  0  0  0  0  0
  138.0473  149.3792  141.0795 C   0  0  0  0  0  0  0  0  0  0  0  0
  136.7365  149.7536  143.0233 C   0  0  0  0  0  0  0  0  0  0  0  0
  137.1805  152.5300  145.5148 O   0  0  0  0  0  0  0  0  0  0  0  0
  139.0279  150.1068  140.4476 C   0  0  0  0  0  0  0  0  0  0  0  0
  1  2  1  0
  2  3  2  0
  1  4  1  0
  3  5  1  0
  1  6  2  0
  6  7  1  0
  5  8  2  0
  6  8  1  0
  3  9  1  0
  4 10  2  0
  7 10  1  0
M  END
$$$$

     RDKit          3D

 10 11  0  0  0  0  0  0  0  0999 V2000
  139.3429  149.9930  140.5895 C   0  0  0  0  0  0  0  0  0  0  0  0
  138.9526  149.9228  139.3665 C   0  0  0  0  0  0  0  0  0  0  0  0
  138.6128  150.1151  141.6415 C   0  0  0  0  0  0  0  0  0  0  0  0
  137.1849  149.8640  141.8304 C   0  0  0  0  0  0  0  0  0  0  0  0
  136.5144  149.7572  140.5779 C   0  0  0  0  0  0  0  0  0  0  0  0
  139.1889  150.4046  143.0744 C   0  0  0  0  0  0  0  0  0  0  0  0
  138.2456  150.9517  144.0738 C   0  0  0  0  0  0  0  0  0  0  0  0
  137.3804  149.6889  139.2512 C   0  0  0  0  0  0  0  0  0  0  0  0
  137.1687  151.4355  144.0021 C   0  0  0  0  0  0  0  0  0  0  0  0
  136.2599  150.3544  142.8558 C   0  0  0  0  0  0  0  0  0  0  0  0
  1  2  2  0
  1  3  1  0
  3  4  1  0
  4  5  2  0
  3  6  1  0
  6  7  2  0
  2  8  1  0
  5  8  1  0
  7  9  1  0
  4 10  1  0
  9 10  2  0
M  END
$$$$

     RDKit          3D

 10 10  0  0  0  0  0  0  0  0999 V2000
  139.2620  151.0920  142.4042 C   0  0  0  0  0  0  0  0  0  0  0  0
  138.8619  152.1309  142.9034 C   0  0  0  0  0  0  0  0  0  0  0  0
  137.9125  151.7980  143.7817 C   0  0  0  0  0  0  0  0  0  0  0  0
  138.8290  150.4014  141.6007 C   0  0  0  0  0  0  0  0  0  0  0  0
  137.6686  149.9547  141.7571 C   0  0  0  0  0  0  0  0  0  0  0  0
  137.5096  152.5999  144.9582 C   0  0  0  0  0  0  0  0  0  0  0  0
  136.8118  150.7640  143.7827 C   0  0  0  0  0  0  0  0  0  0  0  0
  136.3087  153.1095  145.0927 C   0  0  0  0  0  0  0  0  0  0  0  0
  135.3847  152.6797  146.1352 C   0  0  0  0  0  0  0  0  0  0  0  0
  136.7309  150.0965  142.5195 C   0  0  0  0  0  0  0  0  0  0  0  0
  1  2  1  0
  2  3  2  0
  1  4  2  0
  4  5  1  0
  3  6  1  0
  3  7  1  0
  6  8  1  0
  8  9  1  0
  5 10  2  0
  7 10  1  0
M  END
$$$$

     RDKit          3D

 10 11  0  0  0  0  0  0  0  0999 V2000
  139.2620  151.0920  142.4042 C   0  0  0  0  0  0  0  0  0  0  0  0
  138.8619  152.1309  142.9034 C   0  0  0  0  0  0  0  0  0  0  0  0
  137.9125  151.7980  143.7817 C   0  0  0  0  0  0  0  0  0  0  0  0
  138.8290  150.4014  141.6007 C   0  0  0  0  0  0  0  0  0  0  0  0
  137.6686  149.9547  141.7571 C   0  0  0  0  0  0  0  0  0  0  0  0
  137.5096  152.5999  144.9582 C   0  0  0  0  0  0  0  0  0  0  0  0
  136.7963  150.4993  142.8967 C   0  0  0  0  0  0  0  0  0  0  0  0
  136.8846  151.2100  143.7935 C   0  0  0  0  0  0  0  0  0  0  0  0
  135.9754  151.5310  144.8027 C   0  0  0  0  0  0  0  0  0  0  0  0
  136.3742  152.3797  145.4004 N   0  0  0  0  0  0  0  0  0  0  0  0
  1  2  1  0
  2  3  2  0
  1  4  2  0
  4  5  1  0
  3  6  1  0
  5  7  2  0
  3  8  1  0
  7  8  1  0
  8  9  2  0
  6 10  2  0
  9 10  1  0
M  END
$$$$

     RDKit          3D

 10 11  0  0  0  0  0  0  0  0999 V2000
  138.9700  151.3143  142.5679 C   0  0  0  0  0  0  0  0  0  0  0  0
  138.6023  152.0885  143.2650 C   0  0  0  0  0  0  0  0  0  0  0  0
  137.4866  151.7382  144.1969 C   0  0  0  0  0  0  0  0  0  0  0  0
  139.9970  151.3974  141.4279 C   0  0  0  0  0  0  0  0  0  0  0  0
  137.1554  150.3528  144.0258 C   0  0  0  0  0  0  0  0  0  0  0  0
  139.6392  150.7247  140.2349 C   0  0  0  0  0  0  0  0  0  0  0  0
  138.4634  149.8881  142.1128 C   0  0  0  0  0  0  0  0  0  0  0  0
  137.5486  149.5240  143.0495 C   0  0  0  0  0  0  0  0  0  0  0  0
  138.9243  149.4531  140.9098 C   0  0  0  0  0  0  0  0  0  0  0  0
  136.9491  152.6451  145.3279 C   0  0  0  0  0  0  0  0  0  0  0  0
  1  2  1  0
  2  3  2  0
  1  4  1  0
  3  5  1  0
  4  6  2  0
  1  7  2  0
  5  8  2  0
  7  8  1  0
  6  9  1  0
  7  9  1  0
  3 10  1  0
M  END
$$$$

     RDKit          3D

 10 11  0  0  0  0  0  0  0  0999 V2000
  138.7091  151.1474  142.6274 C   0  0  0  0  0  0  0  0  0  0  0  0
  138.5250  151.9378  143.5111 C   0  0  0  0  0  0  0  0  0  0  0  0
  137.3808  151.6590  144.3960 C   0  0  0  0  0  0  0  0  0  0  0  0
  139.6671  150.9842  141.6902 C   0  0  0  0  0  0  0  0  0  0  0  0
  136.7223  150.4781  143.9637 C   0  0  0  0  0  0  0  0  0  0  0  0
  137.6952  150.0834  142.3787 C   0  0  0  0  0  0  0  0  0  0  0  0
  138.0473  149.3792  141.0795 C   0  0  0  0  0  0  0  0  0  0  0  0
  137.1656  148.9271  140.1912 C   0  0  0  0  0  0  0  0  0  0  0  0
  136.8651  149.8205  142.9875 C   0  0  0  0  0  0  0  0  0  0  0  0
  139.2796  150.1598  140.7650 C   0  0  0  0  0  0  0  0  0  0  0  0
  1  2  1  0
  2  3  2  0
  1  4  1  0
  3  5  1  0
  1  6  2  0
  6  7  1  0
  7  8  1  0
  5  9  2  0
  6  9  1  0
  4 10  2  0
  7 10  1  0
M  END
$$$$

     RDKit          3D

 10 10  0  0  0  0  0  0  0  0999 V2000
  139.2620  151.0920  142.4042 C   0  0  0  0  0  0  0  0  0  0  0  0
  138.8619  152.1309  142.9034 C   0  0  0  0  0  0  0  0  0  0  0  0
  137.9125  151.7980  143.7817 C   0  0  0  0  0  0  0  0  0  0  0  0
  138.8290  150.4014  141.6007 C   0  0  0  0  0  0  0  0  0  0  0  0
  137.6686  149.9547  141.7571 C   0  0  0  0  0  0  0  0  0  0  0  0
  137.5096  152.5999  144.9582 C   0  0  0  0  0  0  0  0  0  0  0  0
  136.8118  150.7640  143.7827 C   0  0  0  0  0  0  0  0  0  0  0  0
  136.3087  153.1095  145.0927 C   0  0  0  0  0  0  0  0  0  0  0  0
  135.3847  152.6797  146.1352 C   0  0  0  0  0  0  0  0  0  0  0  0
  136.6594  150.0344  142.7169 C   0  0  0  0  0  0  0  0  0  0  0  0
  1  2  1  0
  2  3  2  0
  1  4  2  0
  4  5  1  0
  3  6  1  0
  3  7  1  0
  6  8  1  0
  8  9  1  0
  5 10  1  0
  7 10  1  0
M  END
$$$$

     RDKit          3D

 10 10  0  0  0  0  0  0  0  0999 V2000
  140.3024  150.2148  139.4796 Cl  0  0  0  0  0  0  0  0  0  0  0  0
  138.6763  150.1843  140.5310 C   0  0  0  0  0  0  0  0  0  0  0  0
  137.6367  149.3820  140.0914 C   0  0  0  0  0  0  0  0  0  0  0  0
  138.8646  150.7169  141.4514 C   0  0  0  0  0  0  0  0  0  0  0  0
  136.4740  149.4736  140.9548 C   0  0  0  0  0  0  0  0  0  0  0  0
  137.8055  150.8841  142.4594 C   0  0  0  0  0  0  0  0  0  0  0  0
  136.6020  150.2105  142.1085 C   0  0  0  0  0  0  0  0  0  0  0  0
  137.8125  151.6357  143.7359 C   0  0  0  0  0  0  0  0  0  0  0  0
  136.7661  151.5746  144.5808 C   0  0  0  0  0  0  0  0  0  0  0  0
  136.3532  152.8038  145.2999 C   0  0  0  0  0  0  0  0  0  0  0  0
  1  2  1  0
  2  3  2  0
  2  4  1  0
  3  5  1  0
  4  6  2  0
  5  7  2  0
  6  7  1  0
  6  8  1  0
  8  9  1  0
  9 10  1  0
M  END
$$$$

     RDKit          3D

 10 10  0  0  0  0  0  0  0  0999 V2000
  140.3024  150.2148  139.4796 Cl  0  0  0  0  0  0  0  0  0  0  0  0
  138.6763  150.1843  140.5310 C   0  0  0  0  0  0  0  0  0  0  0  0
  137.6367  149.3820  140.0914 C   0  0  0  0  0  0  0  0  0  0  0  0
  138.8646  150.7169  141.4514 C   0  0  0  0  0  0  0  0  0  0  0  0
  137.5305  148.8052  138.7934 C   0  0  0  0  0  0  0  0  0  0  0  0
  137.9001  150.8460  142.6225 C   0  0  0  0  0  0  0  0  0  0  0  0
  136.5033  149.4573  141.0392 C   0  0  0  0  0  0  0  0  0  0  0  0
  135.2577  149.0368  140.6689 C   0  0  0  0  0  0  0  0  0  0  0  0
  136.7794  150.1850  142.2772 C   0  0  0  0  0  0  0  0  0  0  0  0
  138.1572  151.4642  144.0223 Cl  0  0  0  0  0  0  0  0  0  0  0  0
  1  2  1  0
  2  3  2  0
  2  4  1  0
  3  5  1  0
  4  6  2  0
  3  7  1  0
  7  8  1  0
  6  9  1  0
  7  9  2  0
  6 10  1  0
M  END
$$$$

     RDKit          3D

 10 10  0  0  0  0  0  0  0  0999 V2000
  139.3429  149.9930  140.5895 C   0  0  0  0  0  0  0  0  0  0  0  0
  138.9526  149.9228  139.3665 C   0  0  0  0  0  0  0  0  0  0  0  0
  138.6128  150.1151  141.6415 C   0  0  0  0  0  0  0  0  0  0  0  0
  139.1487  150.8810  142.9381 C   0  0  0  0  0  0  0  0  0  0  0  0
  138.1909  151.4503  143.6507 C   0  0  0  0  0  0  0  0  0  0  0  0
  136.8486  151.1576  143.5007 C   0  0  0  0  0  0  0  0  0  0  0  0
  139.7891  149.8046  138.2116 C   0  0  0  0  0  0  0  0  0  0  0  0
  136.4610  150.5308  142.6405 C   0  0  0  0  0  0  0  0  0  0  0  0
  137.3584  150.0159  141.5662 C   0  0  0  0  0  0  0  0  0  0  0  0
  135.8550  151.7640  144.7742 C   0  0  0  0  0  0  0  0  0  0  0  0
  1  2  2  3
  1  3  1  0
  3  4  1  0
  4  5  2  0
  5  6  1  0
  2  7  1  0
  6  8  2  0
  3  9  2  0
  8  9  1  0
  6 10  1  0
M  END
$$$$

     RDKit          3D

 10 11  0  0  0  0  0  0  0  0999 V2000
  138.9700  151.3143  142.5679 C   0  0  0  0  0  0  0  0  0  0  0  0
  138.6023  152.0885  143.2650 C   0  0  0  0  0  0  0  0  0  0  0  0
  137.6381  151.6908  144.0811 C   0  0  0  0  0  0  0  0  0  0  0  0
  137.2674  150.3484  144.1156 C   0  0  0  0  0  0  0  0  0  0  0  0
  136.8387  152.5474  145.0612 C   0  0  0  0  0  0  0  0  0  0  0  0
  138.5580  149.9211  142.4168 C   0  0  0  0  0  0  0  0  0  0  0  0
  135.6498  152.0714  145.5889 C   0  0  0  0  0  0  0  0  0  0  0  0
  136.3349  149.9695  145.1773 C   0  0  0  0  0  0  0  0  0  0  0  0
  137.9050  149.6300  143.2672 C   0  0  0  0  0  0  0  0  0  0  0  0
  135.7282  150.9315  145.8707 C   0  0  0  0  0  0  0  0  0  0  0  0
  1  2  1  0
  2  3  2  0
  3  4  1  0
  3  5  1  0
  1  6  2  0
  5  7  1  0
  4  8  1  0
  4  9  2  0
  6  9  1  0
  7 10  2  0
  8 10  1  0
M  END
$$$$

     RDKit          3D

 10 11  0  0  0  0  0  0  0  0999 V2000
  138.9700  151.3143  142.5679 C   0  0  0  0  0  0  0  0  0  0  0  0
  138.6023  152.0885  143.2650 C   0  0  0  0  0  0  0  0  0  0  0  0
  137.4866  151.7382  144.1969 C   0  0  0  0  0  0  0  0  0  0  0  0
  139.9970  151.3974  141.4279 C   0  0  0  0  0  0  0  0  0  0  0  0
  137.1554  150.3528  144.0258 C   0  0  0  0  0  0  0  0  0  0  0  0
  139.6392  150.7247  140.2349 C   0  0  0  0  0  0  0  0  0  0  0  0
  138.6044  149.7908  140.4201 C   0  0  0  0  0  0  0  0  0  0  0  0
  138.3703  149.9482  142.1263 C   0  0  0  0  0  0  0  0  0  0  0  0
  137.1068  152.7399  145.1593 C   0  0  0  0  0  0  0  0  0  0  0  0
  137.4844  149.3729  143.0419 C   0  0  0  0  0  0  0  0  0  0  0  0
  1  2  1  0
  2  3  2  0
  1  4  1  0
  3  5  1  0
  4  6  2  0
  6  7  1  0
  1  8  2  0
  7  8  1  0
  3  9  1  0
  5 10  1  0
  8 10  1  0
M  END
$$$$

     RDKit          3D

 11 12  0  0  0  0  0  0  0  0999 V2000
  139.3429  149.9930  140.5895 C   0  0  0  0  0  0  0  0  0  0  0  0
  138.9526  149.9228  139.3665 C   0  0  0  0  0  0  0  0  0  0  0  0
  138.6128  150.1151  141.6415 C   0  0  0  0  0  0  0  0  0  0  0  0
  137.1849  149.8640  141.8304 C   0  0  0  0  0  0  0  0  0  0  0  0
  136.5144  149.7572  140.5779 C   0  0  0  0  0  0  0  0  0  0  0  0
  139.1166  150.5253  143.0849 C   0  0  0  0  0  0  0  0  0  0  0  0
  138.2341  151.1490  143.8701 C   0  0  0  0  0  0  0  0  0  0  0  0
  136.5390  150.1395  143.0276 C   0  0  0  0  0  0  0  0  0  0  0  0
  137.1106  150.7894  144.0164 C   0  0  0  0  0  0  0  0  0  0  0  0
  136.1588  151.1375  145.4146 Cl  0  0  0  0  0  0  0  0  0  0  0  0
  137.4994  149.6622  139.0781 C   0  0  0  0  0  0  0  0  0  0  0  0
  1  2  2  0
  1  3  1  0
  3  4  1  0
  4  5  2  0
  3  6  1  0
  6  7  2  0
  4  8  1  0
  7  9  1  0
  8  9  2  0
  9 10  1  0
  2 11  1  0
  5 11  1  0
M  END
$$$$

     RDKit          3D

 11 12  0  0  0  0  0  0  0  0999 V2000
  139.3429  149.9930  140.5895 C   0  0  0  0  0  0  0  0  0  0  0  0
  138.9526  149.9228  139.3665 C   0  0  0  0  0  0  0  0  0  0  0  0
  138.6128  150.1151  141.6415 C   0  0  0  0  0  0  0  0  0  0  0  0
  137.5731  149.8751  139.0603 C   0  0  0  0  0  0  0  0  0  0  0  0
  136.7804  149.7030  140.1442 C   0  0  0  0  0  0  0  0  0  0  0  0
  139.1254  150.3586  143.0279 C   0  0  0  0  0  0  0  0  0  0  0  0
  138.2371  150.8994  144.0334 C   0  0  0  0  0  0  0  0  0  0  0  0
  137.1231  151.2869  143.6980 C   0  0  0  0  0  0  0  0  0  0  0  0
  137.1855  150.0443  141.4783 C   0  0  0  0  0  0  0  0  0  0  0  0
  136.2322  150.5671  142.5603 C   0  0  0  0  0  0  0  0  0  0  0  0
  136.3275  151.4471  145.0727 C   0  0  0  0  0  0  0  0  0  0  0  0
  1  2  2  0
  1  3  1  0
  2  4  1  0
  4  5  2  0
  3  6  1  0
  6  7  2  0
  7  8  1  0
  3  9  2  0
  5  9  1  0
  8 10  1  0
  9 10  1  0
  8 11  1  0
M  END
$$$$

     RDKit          3D

 11 12  0  0  0  0  0  0  0  0999 V2000
  139.5546  150.5076  140.4455 C   0  0  0  0  0  0  0  0  0  0  0  0
  139.2164  150.0146  139.3742 C   0  0  0  0  0  0  0  0  0  0  0  0
  138.8577  150.3073  141.5866 C   0  0  0  0  0  0  0  0  0  0  0  0
  139.2276  150.3508  142.8915 C   0  0  0  0  0  0  0  0  0  0  0  0
  138.5491  151.2697  143.6827 C   0  0  0  0  0  0  0  0  0  0  0  0
  137.8571  149.4543  139.3226 C   0  0  0  0  0  0  0  0  0  0  0  0
  137.3213  148.9483  138.1211 C   0  0  0  0  0  0  0  0  0  0  0  0
  137.3044  151.5388  143.2691 C   0  0  0  0  0  0  0  0  0  0  0  0
  136.8526  151.1590  142.0173 C   0  0  0  0  0  0  0  0  0  0  0  0
  137.5606  150.4198  141.2004 C   0  0  0  0  0  0  0  0  0  0  0  0
  136.9385  149.7709  140.2025 C   0  0  0  0  0  0  0  0  0  0  0  0
  1  2  2  0
  1  3  1  0
  3  4  1  0
  4  5  2  0
  2  6  1  0
  6  7  1  0
  5  8  1  0
  8  9  2  0
  3 10  2  0
  9 10  1  0
  6 11  2  0
 10 11  1  0
M  END
$$$$

     RDKit          3D

 11 12  0  0  0  0  0  0  0  0999 V2000
  139.5546  150.5076  140.4455 C   0  0  0  0  0  0  0  0  0  0  0  0
  139.2164  150.0146  139.3742 C   0  0  0  0  0  0  0  0  0  0  0  0
  138.8577  150.3073  141.5866 C   0  0  0  0  0  0  0  0  0  0  0  0
  137.9802  149.2985  139.2390 C   0  0  0  0  0  0  0  0  0  0  0  0
  137.2016  149.2056  140.2784 C   0  0  0  0  0  0  0  0  0  0  0  0
  135.7673  148.7987  140.2461 C   0  0  0  0  0  0  0  0  0  0  0  0
  139.4101  150.8793  142.9241 C   0  0  0  0  0  0  0  0  0  0  0  0
  138.3780  151.0479  144.0095 C   0  0  0  0  0  0  0  0  0  0  0  0
  137.1611  150.5687  143.6278 C   0  0  0  0  0  0  0  0  0  0  0  0
  137.6380  149.8709  141.5323 C   0  0  0  0  0  0  0  0  0  0  0  0
  136.6730  150.0041  142.5893 C   0  0  0  0  0  0  0  0  0  0  0  0
  1  2  2  0
  1  3  1  0
  2  4  1  0
  4  5  2  0
  5  6  1  0
  3  7  1  0
  7  8  2  0
  8  9  1  0
  3 10  2  0
  5 10  1  0
  9 11  2  0
 10 11  1  0
M  END
$$$$

     RDKit          3D

 11 12  0  0  0  0  0  0  0  0999 V2000
  138.9700  151.3143  142.5679 C   0  0  0  0  0  0  0  0  0  0  0  0
  138.6023  152.0885  143.2650 C   0  0  0  0  0  0  0  0  0  0  0  0
  137.4866  151.7382  144.1969 C   0  0  0  0  0  0  0  0  0  0  0  0
  139.9970  151.3974  141.4279 C   0  0  0  0  0  0  0  0  0  0  0  0
  137.1554  150.3528  144.0258 C   0  0  0  0  0  0  0  0  0  0  0  0
  139.6392  150.7247  140.2349 C   0  0  0  0  0  0  0  0  0  0  0  0
  138.1627  149.9703  142.4930 C   0  0  0  0  0  0  0  0  0  0  0  0
  137.5294  149.5981  143.2616 C   0  0  0  0  0  0  0  0  0  0  0  0
  138.6350  149.9084  140.0441 C   0  0  0  0  0  0  0  0  0  0  0  0
  138.2434  149.3499  141.0976 C   0  0  0  0  0  0  0  0  0  0  0  0
  137.0758  152.7381  145.1397 O   0  0  0  0  0  0  0  0  0  0  0  0
  1  2  1  0
  2  3  2  0
  1  4  1  0
  3  5  1  0
  4  6  2  0
  1  7  2  0
  5  8  2  0
  7  8  1  0
  6  9  1  0
  7 10  1  0
  9 10  2  0
  3 11  1  0
M  END
$$$$

     RDKit          3D

 11 12  0  0  0  0  0  0  0  0999 V2000
  140.3024  150.2148  139.4796 Cl  0  0  0  0  0  0  0  0  0  0  0  0
  138.6763  150.1843  140.5310 C   0  0  0  0  0  0  0  0  0  0  0  0
  137.6367  149.3820  140.0914 C   0  0  0  0  0  0  0  0  0  0  0  0
  139.0296  150.8810  141.6190 C   0  0  0  0  0  0  0  0  0  0  0  0
  138.0436  150.8332  142.6890 C   0  0  0  0  0  0  0  0  0  0  0  0
  136.8351  150.0623  142.4002 C   0  0  0  0  0  0  0  0  0  0  0  0
  135.7953  150.2254  143.3982 C   0  0  0  0  0  0  0  0  0  0  0  0
  136.5086  149.5436  141.0500 C   0  0  0  0  0  0  0  0  0  0  0  0
  138.2990  151.3484  144.1431 C   0  0  0  0  0  0  0  0  0  0  0  0
  137.2712  151.8071  144.6739 C   0  0  0  0  0  0  0  0  0  0  0  0
  136.2247  151.1285  144.5431 C   0  0  0  0  0  0  0  0  0  0  0  0
  1  2  1  0
  2  3  2  0
  2  4  1  0
  4  5  2  0
  5  6  1  0
  6  7  1  0
  3  8  1  0
  6  8  2  0
  5  9  1  0
  9 10  1  0
  7 11  1  0
 10 11  1  0
M  END
$$$$

     RDKit          3D

 11 12  0  0  0  0  0  0  0  0999 V2000
  138.9700  151.3143  142.5679 C   0  0  0  0  0  0  0  0  0  0  0  0
  138.6023  152.0885  143.2650 C   0  0  0  0  0  0  0  0  0  0  0  0
  139.7634  151.4680  141.3543 C   0  0  0  0  0  0  0  0  0  0  0  0
  137.7631  151.7028  144.3624 C   0  0  0  0  0  0  0  0  0  0  0  0
  137.3919  150.2989  144.2724 C   0  0  0  0  0  0  0  0  0  0  0  0
  139.5884  150.5257  140.3066 C   0  0  0  0  0  0  0  0  0  0  0  0
  138.5527  149.8126  142.2894 C   0  0  0  0  0  0  0  0  0  0  0  0
  137.2166  152.7018  145.2824 C   0  0  0  0  0  0  0  0  0  0  0  0
  137.7106  149.2502  143.3871 C   0  0  0  0  0  0  0  0  0  0  0  0
  139.0157  149.4203  141.0261 O   0  0  0  0  0  0  0  0  0  0  0  0
  139.9667  150.5896  139.0981 C   0  0  0  0  0  0  0  0  0  0  0  0
  1  2  1  0
  1  3  1  0
  2  4  2  0
  4  5  1  0
  3  6  2  0
  1  7  2  0
  4  8  1  0
  5  9  2  0
  7  9  1  0
  6 10  1  0
  7 10  1  0
  6 11  1  0
M  END
$$$$

     RDKit          3D

 11 12  0  0  0  0  0  0  0  0999 V2000
  138.7091  151.1474  142.6274 C   0  0  0  0  0  0  0  0  0  0  0  0
  138.5250  151.9378  143.5111 C   0  0  0  0  0  0  0  0  0  0  0  0
  137.3808  151.6590  144.3960 C   0  0  0  0  0  0  0  0  0  0  0  0
  139.6671  150.9842  141.6902 C   0  0  0  0  0  0  0  0  0  0  0  0
  136.7223  150.4781  143.9637 C   0  0  0  0  0  0  0  0  0  0  0  0
  137.6952  150.0834  142.3787 C   0  0  0  0  0  0  0  0  0  0  0  0
  138.0473  149.3792  141.0795 C   0  0  0  0  0  0  0  0  0  0  0  0
  139.4970  150.3391  140.5091 C   0  0  0  0  0  0  0  0  0  0  0  0
  136.6625  149.7122  143.0632 C   0  0  0  0  0  0  0  0  0  0  0  0
  136.9494  152.5434  145.6860 Cl  0  0  0  0  0  0  0  0  0  0  0  0
  139.9305  150.2053  139.3993 O   0  0  0  0  0  0  0  0  0  0  0  0
  1  2  1  0
  2  3  2  0
  1  4  1  0
  3  5  1  0
  1  6  2  0
  6  7  1  0
  4  8  1  0
  7  8  1  0
  5  9  2  0
  6  9  1  0
  3 10  1  0
  8 11  2  0
M  END
$$$$

     RDKit          3D

 11 11  0  0  0  0  0  0  0  0999 V2000
  140.3024  150.2148  139.4796 Cl  0  0  0  0  0  0  0  0  0  0  0  0
  138.6763  150.1843  140.5310 C   0  0  0  0  0  0  0  0  0  0  0  0
  137.6367  149.3820  140.0914 C   0  0  0  0  0  0  0  0  0  0  0  0
  138.7708  150.9257  141.6508 C   0  0  0  0  0  0  0  0  0  0  0  0
  137.6808  150.8822  142.5406 C   0  0  0  0  0  0  0  0  0  0  0  0
  137.6715  148.8749  138.7100 C   0  0  0  0  0  0  0  0  0  0  0  0
  137.8290  151.4164  143.9042 C   0  0  0  0  0  0  0  0  0  0  0  0
  136.7219  151.6720  144.7339 C   0  0  0  0  0  0  0  0  0  0  0  0
  135.5391  151.6447  144.2265 C   0  0  0  0  0  0  0  0  0  0  0  0
  136.4632  149.6269  140.6826 C   0  0  0  0  0  0  0  0  0  0  0  0
  136.4953  150.2604  141.9287 C   0  0  0  0  0  0  0  0  0  0  0  0
  1  2  1  0
  2  3  1  0
  2  4  2  0
  4  5  1  0
  3  6  1  0
  5  7  1  0
  7  8  1  0
  8  9  2  0
  3 10  2  0
  5 11  2  0
 10 11  1  0
M  END
$$$$

     RDKit          3D

 11 12  0  0  0  0  0  0  0  0999 V2000
  139.5345  150.8917  142.2314 C   0  0  0  0  0  0  0  0  0  0  0  0
  138.9995  151.9980  142.6394 C   0  0  0  0  0  0  0  0  0  0  0  0
  138.9541  149.6529  142.4257 C   0  0  0  0  0  0  0  0  0  0  0  0
  137.7537  151.8935  143.4337 C   0  0  0  0  0  0  0  0  0  0  0  0
  137.3038  153.0170  144.1125 C   0  0  0  0  0  0  0  0  0  0  0  0
  136.3818  152.7500  145.0844 C   0  0  0  0  0  0  0  0  0  0  0  0
  136.0521  151.4317  145.3456 C   0  0  0  0  0  0  0  0  0  0  0  0
  137.3610  150.5137  143.8398 C   0  0  0  0  0  0  0  0  0  0  0  0
  136.5304  150.3496  144.7476 C   0  0  0  0  0  0  0  0  0  0  0  0
  135.7524  153.9221  145.7139 C   0  0  0  0  0  0  0  0  0  0  0  0
  137.9177  149.4453  143.2670 N   0  0  0  0  0  0  0  0  0  0  0  0
  1  2  2  0
  1  3  1  0
  2  4  1  0
  4  5  1  0
  5  6  2  0
  6  7  1  0
  4  8  2  0
  7  9  2  0
  8  9  1  0
  6 10  1  0
  3 11  2  0
  8 11  1  0
M  END
$$$$

     RDKit          3D

 11 12  0  0  0  0  0  0  0  0999 V2000
  139.5546  150.5076  140.4455 C   0  0  0  0  0  0  0  0  0  0  0  0
  139.2164  150.0146  139.3742 C   0  0  0  0  0  0  0  0  0  0  0  0
  138.8577  150.3073  141.5866 C   0  0  0  0  0  0  0  0  0  0  0  0
  137.9802  149.2985  139.2390 C   0  0  0  0  0  0  0  0  0  0  0  0
  137.1572  149.1627  140.3928 C   0  0  0  0  0  0  0  0  0  0  0  0
  139.3387  150.9198  142.9183 C   0  0  0  0  0  0  0  0  0  0  0  0
  135.7437  148.8009  140.3461 C   0  0  0  0  0  0  0  0  0  0  0  0
  138.3150  151.0618  143.9910 C   0  0  0  0  0  0  0  0  0  0  0  0
  137.1342  150.4871  143.5884 C   0  0  0  0  0  0  0  0  0  0  0  0
  137.6410  149.7654  141.5522 C   0  0  0  0  0  0  0  0  0  0  0  0
  136.7820  149.9270  142.5347 N   0  0  0  0  0  0  0  0  0  0  0  0
  1  2  2  0
  1  3  1  0
  2  4  1  0
  4  5  2  0
  3  6  1  0
  5  7  1  0
  6  8  2  0
  8  9  1  0
  3 10  2  0
  5 10  1  0
  9 11  2  0
 10 11  1  0
M  END
$$$$

     RDKit          3D

 11 11  0  0  0  0  0  0  0  0999 V2000
  140.3024  150.2148  139.4796 Cl  0  0  0  0  0  0  0  0  0  0  0  0
  138.6763  150.1843  140.5310 C   0  0  0  0  0  0  0  0  0  0  0  0
  137.6367  149.3820  140.0914 C   0  0  0  0  0  0  0  0  0  0  0  0
  138.8646  150.7169  141.4514 C   0  0  0  0  0  0  0  0  0  0  0  0
  136.4740  149.4736  140.9548 C   0  0  0  0  0  0  0  0  0  0  0  0
  137.8055  150.8841  142.4594 C   0  0  0  0  0  0  0  0  0  0  0  0
  137.9619  151.6087  143.7233 C   0  0  0  0  0  0  0  0  0  0  0  0
  136.8776  151.8382  144.5067 C   0  0  0  0  0  0  0  0  0  0  0  0
  135.2432  149.0190  140.4385 C   0  0  0  0  0  0  0  0  0  0  0  0
  136.5352  150.2967  142.0522 C   0  0  0  0  0  0  0  0  0  0  0  0
  135.6333  151.7637  144.1844 C   0  0  0  0  0  0  0  0  0  0  0  0
  1  2  1  0
  2  3  2  0
  2  4  1  0
  3  5  1  0
  4  6  2  0
  6  7  1  0
  7  8  2  3
  5  9  1  0
  5 10  2  0
  6 10  1  0
  8 11  1  0
M  END
$$$$

     RDKit          3D

 11 12  0  0  0  0  0  0  0  0999 V2000
  138.9700  151.3143  142.5679 C   0  0  0  0  0  0  0  0  0  0  0  0
  138.6023  152.0885  143.2650 C   0  0  0  0  0  0  0  0  0  0  0  0
  139.7634  151.4680  141.3543 C   0  0  0  0  0  0  0  0  0  0  0  0
  137.7631  151.7028  144.3624 C   0  0  0  0  0  0  0  0  0  0  0  0
  137.3919  150.2989  144.2724 C   0  0  0  0  0  0  0  0  0  0  0  0
  139.5884  150.5257  140.3066 C   0  0  0  0  0  0  0  0  0  0  0  0
  138.7539  149.4618  140.7022 C   0  0  0  0  0  0  0  0  0  0  0  0
  137.9428  149.4086  141.8985 C   0  0  0  0  0  0  0  0  0  0  0  0
  138.1458  150.1138  143.0448 C   0  0  0  0  0  0  0  0  0  0  0  0
  140.3759  150.6421  139.0120 C   0  0  0  0  0  0  0  0  0  0  0  0
  137.1307  152.3870  145.5761 C   0  0  0  0  0  0  0  0  0  0  0  0
  1  2  1  0
  1  3  1  0
  2  4  2  0
  4  5  1  0
  3  6  2  0
  6  7  1  0
  7  8  2  0
  1  9  2  0
  5  9  1  0
  8  9  1  0
  6 10  1  0
  4 11  1  0
M  END
$$$$

     RDKit          3D

 11 12  0  0  0  0  0  0  0  0999 V2000
  140.3024  150.2148  139.4796 Cl  0  0  0  0  0  0  0  0  0  0  0  0
  138.6763  150.1843  140.5310 C   0  0  0  0  0  0  0  0  0  0  0  0
  137.6367  149.3820  140.0914 C   0  0  0  0  0  0  0  0  0  0  0  0
  138.7469  150.9460  141.6721 C   0  0  0  0  0  0  0  0  0  0  0  0
  137.7520  150.8717  142.6252 C   0  0  0  0  0  0  0  0  0  0  0  0
  136.6300  150.0366  142.2586 C   0  0  0  0  0  0  0  0  0  0  0  0
  135.5190  150.1701  143.1845 C   0  0  0  0  0  0  0  0  0  0  0  0
  136.4788  149.4868  140.9498 C   0  0  0  0  0  0  0  0  0  0  0  0
  135.9341  150.9695  144.4533 C   0  0  0  0  0  0  0  0  0  0  0  0
  137.0388  150.7629  145.0602 C   0  0  0  0  0  0  0  0  0  0  0  0
  138.0579  151.1581  144.0504 C   0  0  0  0  0  0  0  0  0  0  0  0
  1  2  1  0
  2  3  2  0
  2  4  1  0
  4  5  2  0
  5  6  1  0
  6  7  1  0
  3  8  1  0
  6  8  2  0
  7  9  1  0
  9 10  2  0
  5 11  1  0
 10 11  1  0
M  END
$$$$

     RDKit          3D

 11 12  0  0  0  0  0  0  0  0999 V2000
  139.5546  150.5076  140.4455 C   0  0  0  0  0  0  0  0  0  0  0  0
  139.2164  150.0146  139.3742 C   0  0  0  0  0  0  0  0  0  0  0  0
  138.8577  150.3073  141.5866 C   0  0  0  0  0  0  0  0  0  0  0  0
  137.9802  149.2985  139.2390 C   0  0  0  0  0  0  0  0  0  0  0  0
  139.3336  150.9318  142.8840 C   0  0  0  0  0  0  0  0  0  0  0  0
  138.3135  151.4959  143.6105 C   0  0  0  0  0  0  0  0  0  0  0  0
  137.0050  151.1284  143.2688 C   0  0  0  0  0  0  0  0  0  0  0  0
  136.8322  150.4048  142.1499 C   0  0  0  0  0  0  0  0  0  0  0  0
  137.3954  148.8851  138.1868 C   0  0  0  0  0  0  0  0  0  0  0  0
  137.5406  150.0040  141.4469 C   0  0  0  0  0  0  0  0  0  0  0  0
  137.1083  149.2686  140.3126 C   0  0  0  0  0  0  0  0  0  0  0  0
  1  2  2  0
  1  3  1  0
  2  4  1  0
  3  5  1  0
  5  6  2  0
  6  7  1  0
  7  8  2  0
  4  9  2  0
  3 10  2  0
  8 10  1  0
  4 11  1  0
 10 11  1  0
M  END
$$$$

     RDKit          3D

 11 12  0  0  0  0  0  0  0  0999 V2000
  139.2620  151.0920  142.4042 C   0  0  0  0  0  0  0  0  0  0  0  0
  138.8619  152.1309  142.9034 C   0  0  0  0  0  0  0  0  0  0  0  0
  137.9125  151.7980  143.7817 C   0  0  0  0  0  0  0  0  0  0  0  0
  138.8290  150.4014  141.6007 C   0  0  0  0  0  0  0  0  0  0  0  0
  137.6686  149.9547  141.7571 C   0  0  0  0  0  0  0  0  0  0  0  0
  137.5096  152.5999  144.9582 C   0  0  0  0  0  0  0  0  0  0  0  0
  136.8118  150.7640  143.7827 C   0  0  0  0  0  0  0  0  0  0  0  0
  135.9232  150.7938  144.8969 C   0  0  0  0  0  0  0  0  0  0  0  0
  136.3373  152.3515  145.4586 C   0  0  0  0  0  0  0  0  0  0  0  0
  136.8601  149.4342  140.6563 C   0  0  0  0  0  0  0  0  0  0  0  0
  136.8250  150.2809  142.8992 N   0  0  0  0  0  0  0  0  0  0  0  0
  1  2  1  0
  2  3  2  0
  1  4  2  0
  4  5  1  0
  3  6  1  0
  3  7  1  0
  7  8  2  0
  6  9  2  0
  8  9  1  0
  5 10  1  0
  5 11  2  0
  7 11  1  0
M  END
$$$$

     RDKit          3D

 11 12  0  0  0  0  0  0  0  0999 V2000
  139.5546  150.5076  140.4455 C   0  0  0  0  0  0  0  0  0  0  0  0
  139.2164  150.0146  139.3742 C   0  0  0  0  0  0  0  0  0  0  0  0
  138.8577  150.3073  141.5866 C   0  0  0  0  0  0  0  0  0  0  0  0
  137.9802  149.2985  139.2390 C   0  0  0  0  0  0  0  0  0  0  0  0
  139.3336  150.9318  142.8840 C   0  0  0  0  0  0  0  0  0  0  0  0
  138.3135  151.4959  143.6105 C   0  0  0  0  0  0  0  0  0  0  0  0
  137.0050  151.1284  143.2688 C   0  0  0  0  0  0  0  0  0  0  0  0
  136.8322  150.4048  142.1499 C   0  0  0  0  0  0  0  0  0  0  0  0
  137.3954  148.8851  138.1868 C   0  0  0  0  0  0  0  0  0  0  0  0
  137.7652  149.9236  141.4231 C   0  0  0  0  0  0  0  0  0  0  0  0
  137.1404  149.2865  140.2778 N   0  0  0  0  0  0  0  0  0  0  0  0
  1  2  2  0
  1  3  1  0
  2  4  1  0
  3  5  1  0
  5  6  2  0
  6  7  1  0
  7  8  2  0
  4  9  2  0
  3 10  2  0
  8 10  1  0
  4 11  1  0
 10 11  1  0
M  END
$$$$

     RDKit          3D

 11 12  0  0  0  0  0  0  0  0999 V2000
  139.3429  149.9930  140.5895 C   0  0  0  0  0  0  0  0  0  0  0  0
  138.9526  149.9228  139.3665 C   0  0  0  0  0  0  0  0  0  0  0  0
  138.6128  150.1151  141.6415 C   0  0  0  0  0  0  0  0  0  0  0  0
  137.1849  149.8640  141.8304 C   0  0  0  0  0  0  0  0  0  0  0  0
  136.5144  149.7572  140.5779 C   0  0  0  0  0  0  0  0  0  0  0  0
  139.1166  150.5253  143.0849 C   0  0  0  0  0  0  0  0  0  0  0  0
  138.2341  151.1490  143.8701 C   0  0  0  0  0  0  0  0  0  0  0  0
  136.9087  150.9585  143.7785 C   0  0  0  0  0  0  0  0  0  0  0  0
  136.2893  150.2993  142.7352 C   0  0  0  0  0  0  0  0  0  0  0  0
  137.3636  149.6320  139.3065 C   0  0  0  0  0  0  0  0  0  0  0  0
  135.8904  151.6329  145.0030 C   0  0  0  0  0  0  0  0  0  0  0  0
  1  2  2  0
  1  3  1  0
  3  4  1  0
  4  5  2  0
  3  6  1  0
  6  7  2  0
  7  8  1  0
  4  9  1  0
  8  9  2  0
  2 10  1  0
  5 10  1  0
  8 11  1  0
M  END
$$$$

     RDKit          3D

 11 12  0  0  0  0  0  0  0  0999 V2000
  138.7091  151.1474  142.6274 C   0  0  0  0  0  0  0  0  0  0  0  0
  138.5250  151.9378  143.5111 C   0  0  0  0  0  0  0  0  0  0  0  0
  137.3808  151.6590  144.3960 C   0  0  0  0  0  0  0  0  0  0  0  0
  139.6671  150.9842  141.6902 C   0  0  0  0  0  0  0  0  0  0  0  0
  136.7223  150.4781  143.9637 C   0  0  0  0  0  0  0  0  0  0  0  0
  137.7855  150.1127  142.3490 C   0  0  0  0  0  0  0  0  0  0  0  0
  138.1041  149.3710  141.0881 C   0  0  0  0  0  0  0  0  0  0  0  0
  136.8628  149.7772  142.9746 N   0  0  0  0  0  0  0  0  0  0  0  0
  137.0715  152.5403  145.6372 C   0  0  0  0  0  0  0  0  0  0  0  0
  135.7644  152.4357  146.1140 C   0  0  0  0  0  0  0  0  0  0  0  0
  139.0654  150.0984  140.4852 C   0  0  0  0  0  0  0  0  0  0  0  0
  1  2  1  0
  2  3  2  0
  1  4  1  0
  3  5  1  0
  1  6  2  0
  6  7  1  0
  5  8  2  0
  6  8  1  0
  3  9  1  0
  9 10  1  0
  4 11  2  0
  7 11  2  0
M  END
$$$$

     RDKit          3D

 11 11  0  0  0  0  0  0  0  0999 V2000
  139.2620  151.0920  142.4042 C   0  0  0  0  0  0  0  0  0  0  0  0
  138.8619  152.1309  142.9034 C   0  0  0  0  0  0  0  0  0  0  0  0
  137.7834  151.8925  143.8932 C   0  0  0  0  0  0  0  0  0  0  0  0
  137.3598  150.5409  144.0625 C   0  0  0  0  0  0  0  0  0  0  0  0
  136.3243  150.4647  145.1225 C   0  0  0  0  0  0  0  0  0  0  0  0
  139.2661  149.7548  142.8054 C   0  0  0  0  0  0  0  0  0  0  0  0
  137.9618  149.6107  143.5791 C   0  0  0  0  0  0  0  0  0  0  0  0
  135.4250  151.3022  145.3496 C   0  0  0  0  0  0  0  0  0  0  0  0
  140.2856  151.3075  141.2734 C   0  0  0  0  0  0  0  0  0  0  0  0
  140.0463  150.6708  140.1192 C   0  0  0  0  0  0  0  0  0  0  0  0
  135.0193  152.2348  144.5170 C   0  0  0  0  0  0  0  0  0  0  0  0
  1  2  1  0
  2  3  2  0
  3  4  1  0
  4  5  2  3
  1  6  1  0
  4  7  1  0
  6  7  2  0
  5  8  1  0
  1  9  2  3
  9 10  1  0
  8 11  2  0
M  END
$$$$

     RDKit          3D

 11 12  0  0  0  0  0  0  0  0999 V2000
  138.7091  151.1474  142.6274 C   0  0  0  0  0  0  0  0  0  0  0  0
  138.5250  151.9378  143.5111 C   0  0  0  0  0  0  0  0  0  0  0  0
  137.3808  151.6590  144.3960 C   0  0  0  0  0  0  0  0  0  0  0  0
  139.6671  150.9842  141.6902 C   0  0  0  0  0  0  0  0  0  0  0  0
  136.7223  150.4781  143.9637 C   0  0  0  0  0  0  0  0  0  0  0  0
  137.7855  150.1127  142.3490 C   0  0  0  0  0  0  0  0  0  0  0  0
  138.1041  149.3710  141.0881 C   0  0  0  0  0  0  0  0  0  0  0  0
  137.2573  148.9419  140.1763 C   0  0  0  0  0  0  0  0  0  0  0  0
  139.4486  150.1140  140.6357 C   0  0  0  0  0  0  0  0  0  0  0  0
  136.7775  149.7415  143.1514 C   0  0  0  0  0  0  0  0  0  0  0  0
  140.0812  149.8484  139.5540 C   0  0  0  0  0  0  0  0  0  0  0  0
  1  2  1  0
  2  3  2  0
  1  4  1  0
  3  5  1  0
  1  6  2  0
  6  7  1  0
  7  8  1  0
  4  9  1  0
  7  9  1  0
  5 10  2  0
  6 10  1  0
  9 11  2  0
M  END
$$$$

     RDKit          3D

 11 12  0  0  0  0  0  0  0  0999 V2000
  139.5345  150.8917  142.2314 C   0  0  0  0  0  0  0  0  0  0  0  0
  138.9995  151.9980  142.6394 C   0  0  0  0  0  0  0  0  0  0  0  0
  138.9541  149.6529  142.4257 C   0  0  0  0  0  0  0  0  0  0  0  0
  137.7537  151.8935  143.4337 C   0  0  0  0  0  0  0  0  0  0  0  0
  137.3038  153.0170  144.1125 C   0  0  0  0  0  0  0  0  0  0  0  0
  136.3818  152.7500  145.0844 C   0  0  0  0  0  0  0  0  0  0  0  0
  136.0521  151.4317  145.3456 C   0  0  0  0  0  0  0  0  0  0  0  0
  137.3705  150.5238  143.7866 C   0  0  0  0  0  0  0  0  0  0  0  0
  135.7151  153.8908  145.7382 C   0  0  0  0  0  0  0  0  0  0  0  0
  137.9568  149.5783  143.3069 C   0  0  0  0  0  0  0  0  0  0  0  0
  136.6734  150.4094  144.5997 N   0  0  0  0  0  0  0  0  0  0  0  0
  1  2  2  0
  1  3  1  0
  2  4  1  0
  4  5  1  0
  5  6  2  0
  6  7  1  0
  4  8  2  0
  6  9  1  0
  3 10  2  0
  8 10  1  0
  7 11  2  0
  8 11  1  0
M  END
$$$$

     RDKit          3D

 11 12  0  0  0  0  0  0  0  0999 V2000
  139.2620  151.0920  142.4042 C   0  0  0  0  0  0  0  0  0  0  0  0
  138.8619  152.1309  142.9034 C   0  0  0  0  0  0  0  0  0  0  0  0
  137.7834  151.8925  143.8932 C   0  0  0  0  0  0  0  0  0  0  0  0
  137.3598  150.5409  144.0625 C   0  0  0  0  0  0  0  0  0  0  0  0
  136.3243  150.4647  145.1225 C   0  0  0  0  0  0  0  0  0  0  0  0
  139.2661  149.7548  142.8054 C   0  0  0  0  0  0  0  0  0  0  0  0
  139.9761  151.1310  141.1435 C   0  0  0  0  0  0  0  0  0  0  0  0
  138.0988  149.6117  143.7213 C   0  0  0  0  0  0  0  0  0  0  0  0
  139.8646  150.2796  140.0534 C   0  0  0  0  0  0  0  0  0  0  0  0
  135.7453  151.6036  145.3722 C   0  0  0  0  0  0  0  0  0  0  0  0
  136.8978  152.8439  144.6386 C   0  0  0  0  0  0  0  0  0  0  0  0
  1  2  1  0
  2  3  2  0
  3  4  1  0
  4  5  2  0
  1  6  1  0
  1  7  2  3
  4  8  1  0
  6  8  2  0
  7  9  1  0
  5 10  1  0
  3 11  1  0
 10 11  2  0
M  END
$$$$

     RDKit          3D

 11 12  0  0  0  0  0  0  0  0999 V2000
  138.7091  151.1474  142.6274 C   0  0  0  0  0  0  0  0  0  0  0  0
  138.5250  151.9378  143.5111 C   0  0  0  0  0  0  0  0  0  0  0  0
  137.3808  151.6590  144.3960 C   0  0  0  0  0  0  0  0  0  0  0  0
  139.6671  150.9842  141.6902 C   0  0  0  0  0  0  0  0  0  0  0  0
  136.7223  150.4781  143.9637 C   0  0  0  0  0  0  0  0  0  0  0  0
  137.7855  150.1127  142.3490 C   0  0  0  0  0  0  0  0  0  0  0  0
  138.1041  149.3710  141.0881 C   0  0  0  0  0  0  0  0  0  0  0  0
  135.5649  150.2222  145.0422 C   0  0  0  0  0  0  0  0  0  0  0  0
  138.9604  150.0716  140.3209 C   0  0  0  0  0  0  0  0  0  0  0  0
  139.9312  150.7738  140.5951 C   0  0  0  0  0  0  0  0  0  0  0  0
  136.7725  149.7744  143.1641 N   0  0  0  0  0  0  0  0  0  0  0  0
  1  2  1  0
  2  3  2  0
  1  4  1  0
  3  5  1  0
  1  6  2  0
  6  7  1  0
  5  8  1  0
  7  9  2  0
  4 10  2  0
  9 10  1  0
  5 11  2  0
  6 11  1  0
M  END
$$$$

     RDKit          3D

 11 12  0  0  0  0  0  0  0  0999 V2000
  138.7091  151.1474  142.6274 C   0  0  0  0  0  0  0  0  0  0  0  0
  138.5250  151.9378  143.5111 C   0  0  0  0  0  0  0  0  0  0  0  0
  137.3808  151.6590  144.3960 C   0  0  0  0  0  0  0  0  0  0  0  0
  139.6671  150.9842  141.6902 C   0  0  0  0  0  0  0  0  0  0  0  0
  136.7223  150.4781  143.9637 C   0  0  0  0  0  0  0  0  0  0  0  0
  137.6952  150.0834  142.3787 C   0  0  0  0  0  0  0  0  0  0  0  0
  138.0473  149.3792  141.0795 C   0  0  0  0  0  0  0  0  0  0  0  0
  136.7365  149.7536  143.0233 C   0  0  0  0  0  0  0  0  0  0  0  0
  137.1805  152.5300  145.5148 O   0  0  0  0  0  0  0  0  0  0  0  0
  136.6091  153.7287  145.1785 C   0  0  0  0  0  0  0  0  0  0  0  0
  139.4975  150.1796  140.5889 C   0  0  0  0  0  0  0  0  0  0  0  0
  1  2  1  0
  2  3  2  0
  1  4  1  0
  3  5  1  0
  1  6  2  0
  6  7  1  0
  5  8  2  0
  6  8  1  0
  3  9  1  0
  9 10  1  0
  4 11  2  0
  7 11  1  0
M  END
$$$$

     RDKit          3D

 11 12  0  0  0  0  0  0  0  0999 V2000
  138.7091  151.1474  142.6274 C   0  0  0  0  0  0  0  0  0  0  0  0
  138.5250  151.9378  143.5111 C   0  0  0  0  0  0  0  0  0  0  0  0
  137.3808  151.6590  144.3960 C   0  0  0  0  0  0  0  0  0  0  0  0
  139.6671  150.9842  141.6902 C   0  0  0  0  0  0  0  0  0  0  0  0
  136.7223  150.4781  143.9637 C   0  0  0  0  0  0  0  0  0  0  0  0
  137.6952  150.0834  142.3787 C   0  0  0  0  0  0  0  0  0  0  0  0
  138.0473  149.3792  141.0795 C   0  0  0  0  0  0  0  0  0  0  0  0
  136.7365  149.7536  143.0233 C   0  0  0  0  0  0  0  0  0  0  0  0
  137.1805  152.5300  145.5148 O   0  0  0  0  0  0  0  0  0  0  0  0
  139.2948  149.9966  140.5696 C   0  0  0  0  0  0  0  0  0  0  0  0
  140.0291  150.2132  139.6092 O   0  0  0  0  0  0  0  0  0  0  0  0
  1  2  1  0
  2  3  2  0
  1  4  1  0
  3  5  1  0
  1  6  2  0
  6  7  1  0
  5  8  2  0
  6  8  1  0
  3  9  1  0
  4 10  1  0
  7 10  1  0
 10 11  1  0
M  END
$$$$

     RDKit          3D

 11 11  0  0  0  0  0  0  0  0999 V2000
  138.9700  151.3143  142.5679 C   0  0  0  0  0  0  0  0  0  0  0  0
  138.6023  152.0885  143.2650 C   0  0  0  0  0  0  0  0  0  0  0  0
  137.6696  151.8114  144.0578 C   0  0  0  0  0  0  0  0  0  0  0  0
  136.5753  152.7057  144.5965 C   0  0  0  0  0  0  0  0  0  0  0  0
  135.5868  152.4509  145.5251 C   0  0  0  0  0  0  0  0  0  0  0  0
  135.6617  151.0048  145.8899 C   0  0  0  0  0  0  0  0  0  0  0  0
  139.9422  151.4878  141.3764 C   0  0  0  0  0  0  0  0  0  0  0  0
  137.2863  150.4066  144.6506 C   0  0  0  0  0  0  0  0  0  0  0  0
  138.3156  149.5379  144.1403 O   0  0  0  0  0  0  0  0  0  0  0  0
  139.6749  150.7000  140.2287 C   0  0  0  0  0  0  0  0  0  0  0  0
  136.4390  149.9921  145.5039 C   0  0  0  0  0  0  0  0  0  0  0  0
  1  2  2  3
  2  3  1  0
  3  4  1  0
  4  5  2  0
  5  6  1  0
  1  7  1  0
  3  8  2  0
  8  9  1  0
  7 10  1  0
  6 11  2  0
  8 11  1  0
M  END
$$$$

     RDKit          3D

 11 12  0  0  0  0  0  0  0  0999 V2000
  139.3429  149.9930  140.5895 C   0  0  0  0  0  0  0  0  0  0  0  0
  138.9526  149.9228  139.3665 C   0  0  0  0  0  0  0  0  0  0  0  0
  138.6128  150.1151  141.6415 C   0  0  0  0  0  0  0  0  0  0  0  0
  137.1849  149.8640  141.8304 C   0  0  0  0  0  0  0  0  0  0  0  0
  136.5144  149.7572  140.5779 C   0  0  0  0  0  0  0  0  0  0  0  0
  139.1166  150.5253  143.0849 C   0  0  0  0  0  0  0  0  0  0  0  0
  138.1694  151.0130  144.0451 C   0  0  0  0  0  0  0  0  0  0  0  0
  137.2175  149.6795  139.2586 C   0  0  0  0  0  0  0  0  0  0  0  0
  136.4675  150.1326  142.9877 C   0  0  0  0  0  0  0  0  0  0  0  0
  135.0300  149.9168  142.8417 C   0  0  0  0  0  0  0  0  0  0  0  0
  136.9622  150.7005  144.1322 C   0  0  0  0  0  0  0  0  0  0  0  0
  1  2  2  0
  1  3  1  0
  3  4  1  0
  4  5  2  0
  3  6  1  0
  6  7  2  0
  2  8  1  0
  5  8  1  0
  4  9  1  0
  9 10  1  0
  7 11  1  0
  9 11  2  0
M  END
$$$$

     RDKit          3D

 11 12  0  0  0  0  0  0  0  0999 V2000
  140.3024  150.2148  139.4796 Cl  0  0  0  0  0  0  0  0  0  0  0  0
  138.6763  150.1843  140.5310 C   0  0  0  0  0  0  0  0  0  0  0  0
  137.6367  149.3820  140.0914 C   0  0  0  0  0  0  0  0  0  0  0  0
  139.0296  150.8810  141.6190 C   0  0  0  0  0  0  0  0  0  0  0  0
  136.6556  149.6404  140.8181 C   0  0  0  0  0  0  0  0  0  0  0  0
  136.6486  150.4486  141.8740 C   0  0  0  0  0  0  0  0  0  0  0  0
  135.4283  150.7331  142.7845 C   0  0  0  0  0  0  0  0  0  0  0  0
  137.8050  151.0306  142.4471 C   0  0  0  0  0  0  0  0  0  0  0  0
  135.6546  150.8747  144.1281 C   0  0  0  0  0  0  0  0  0  0  0  0
  136.5585  151.5502  144.7332 C   0  0  0  0  0  0  0  0  0  0  0  0
  138.1130  151.7620  143.7676 C   0  0  0  0  0  0  0  0  0  0  0  0
  1  2  1  0
  2  3  2  0
  2  4  1  0
  3  5  1  0
  5  6  2  0
  6  7  1  0
  4  8  2  0
  6  8  1  0
  7  9  2  0
  9 10  1  0
  8 11  1  0
 10 11  2  0
M  END
$$$$

     RDKit          3D

 11 12  0  0  0  0  0  0  0  0999 V2000
  138.7091  151.1474  142.6274 C   0  0  0  0  0  0  0  0  0  0  0  0
  138.5250  151.9378  143.5111 C   0  0  0  0  0  0  0  0  0  0  0  0
  137.3808  151.6590  144.3960 C   0  0  0  0  0  0  0  0  0  0  0  0
  139.6671  150.9842  141.6902 C   0  0  0  0  0  0  0  0  0  0  0  0
  136.7223  150.4781  143.9637 C   0  0  0  0  0  0  0  0  0  0  0  0
  137.6952  150.0834  142.3787 C   0  0  0  0  0  0  0  0  0  0  0  0
  138.0473  149.3792  141.0795 C   0  0  0  0  0  0  0  0  0  0  0  0
  136.7644  149.8517  143.1532 C   0  0  0  0  0  0  0  0  0  0  0  0
  139.2840  150.0047  140.5771 C   0  0  0  0  0  0  0  0  0  0  0  0
  139.8666  149.8133  139.4762 O   0  0  0  0  0  0  0  0  0  0  0  0
  137.2166  152.5786  145.4993 O   0  0  0  0  0  0  0  0  0  0  0  0
  1  2  1  0
  2  3  2  0
  1  4  1  0
  3  5  1  0
  1  6  2  0
  6  7  1  0
  5  8  2  0
  6  8  1  0
  4  9  1  0
  7  9  1  0
  9 10  2  0
  3 11  1  0
M  END
$$$$

     RDKit          3D

 11 11  0  0  0  0  0  0  0  0999 V2000
  139.3429  149.9930  140.5895 C   0  0  0  0  0  0  0  0  0  0  0  0
  138.9526  149.9228  139.3665 C   0  0  0  0  0  0  0  0  0  0  0  0
  138.6128  150.1151  141.6415 C   0  0  0  0  0  0  0  0  0  0  0  0
  139.1487  150.8810  142.9381 C   0  0  0  0  0  0  0  0  0  0  0  0
  138.1909  151.4503  143.6507 C   0  0  0  0  0  0  0  0  0  0  0  0
  136.8486  151.1576  143.5007 C   0  0  0  0  0  0  0  0  0  0  0  0
  139.7891  149.8046  138.2116 C   0  0  0  0  0  0  0  0  0  0  0  0
  136.4610  150.5308  142.6405 C   0  0  0  0  0  0  0  0  0  0  0  0
  137.1409  150.0513  141.5198 C   0  0  0  0  0  0  0  0  0  0  0  0
  136.0297  151.8969  144.5780 C   0  0  0  0  0  0  0  0  0  0  0  0
  136.2030  153.0420  145.0462 C   0  0  0  0  0  0  0  0  0  0  0  0
  1  2  2  3
  1  3  1  0
  3  4  1  0
  4  5  2  0
  5  6  1  0
  2  7  1  0
  6  8  2  0
  3  9  2  0
  8  9  1  0
  6 10  1  0
 10 11  2  0
M  END
$$$$

     RDKit          3D

 11 12  0  0  0  0  0  0  0  0999 V2000
  140.3024  150.2148  139.4796 Cl  0  0  0  0  0  0  0  0  0  0  0  0
  138.6763  150.1843  140.5310 C   0  0  0  0  0  0  0  0  0  0  0  0
  137.6367  149.3820  140.0914 C   0  0  0  0  0  0  0  0  0  0  0  0
  137.5434  148.9630  138.7426 C   0  0  0  0  0  0  0  0  0  0  0  0
  138.4840  150.4347  141.7160 C   0  0  0  0  0  0  0  0  0  0  0  0
  136.5057  149.4969  140.9388 C   0  0  0  0  0  0  0  0  0  0  0  0
  135.2192  149.1102  140.4056 C   0  0  0  0  0  0  0  0  0  0  0  0
  136.8857  150.1640  142.0311 C   0  0  0  0  0  0  0  0  0  0  0  0
  138.4900  151.1193  142.9393 C   0  0  0  0  0  0  0  0  0  0  0  0
  137.8187  151.1595  144.0311 C   0  0  0  0  0  0  0  0  0  0  0  0
  136.7366  150.5729  143.3662 N   0  0  0  0  0  0  0  0  0  0  0  0
  1  2  1  0
  2  3  2  0
  3  4  1  0
  2  5  1  0
  3  6  1  0
  6  7  1  0
  5  8  1  0
  6  8  2  0
  5  9  1  0
  9 10  2  0
  8 11  1  0
 10 11  1  0
M  END
$$$$

     RDKit          3D

 11 11  0  0  0  0  0  0  0  0999 V2000
  138.7250  151.5761  143.3186 C   0  0  0  0  0  0  0  0  0  0  0  0
  137.9190  152.3260  143.7534 C   0  0  0  0  0  0  0  0  0  0  0  0
  136.7518  151.8065  144.4377 C   0  0  0  0  0  0  0  0  0  0  0  0
  138.5742  150.7615  142.3609 C   0  0  0  0  0  0  0  0  0  0  0  0
  136.5038  150.5082  144.1692 C   0  0  0  0  0  0  0  0  0  0  0  0
  135.9552  152.7522  145.3590 C   0  0  0  0  0  0  0  0  0  0  0  0
  137.4366  149.8142  142.6397 C   0  0  0  0  0  0  0  0  0  0  0  0
  136.6348  149.6524  143.3535 C   0  0  0  0  0  0  0  0  0  0  0  0
  136.2024  154.0722  145.4507 C   0  0  0  0  0  0  0  0  0  0  0  0
  135.1955  152.0130  146.0090 C   0  0  0  0  0  0  0  0  0  0  0  0
  139.4384  150.8055  141.0956 C   0  0  0  0  0  0  0  0  0  0  0  0
  1  2  1  0
  2  3  2  0
  1  4  2  0
  3  5  1  0
  3  6  1  0
  4  7  1  0
  5  8  2  0
  7  8  2  0
  6  9  1  0
  6 10  2  0
  4 11  1  0
M  END
$$$$

     RDKit          3D

 11 11  0  0  0  0  0  0  0  0999 V2000
  139.2620  151.0920  142.4042 C   0  0  0  0  0  0  0  0  0  0  0  0
  138.8619  152.1309  142.9034 C   0  0  0  0  0  0  0  0  0  0  0  0
  137.7834  151.8925  143.8932 C   0  0  0  0  0  0  0  0  0  0  0  0
  137.3598  150.5409  144.0625 C   0  0  0  0  0  0  0  0  0  0  0  0
  136.3243  150.4647  145.1225 C   0  0  0  0  0  0  0  0  0  0  0  0
  139.2661  149.7548  142.8054 C   0  0  0  0  0  0  0  0  0  0  0  0
  137.9618  149.6107  143.5791 C   0  0  0  0  0  0  0  0  0  0  0  0
  135.4250  151.3022  145.3496 C   0  0  0  0  0  0  0  0  0  0  0  0
  140.2856  151.3075  141.2734 C   0  0  0  0  0  0  0  0  0  0  0  0
  140.0463  150.6708  140.1192 C   0  0  0  0  0  0  0  0  0  0  0  0
  135.0193  152.2348  144.5170 C   0  0  0  0  0  0  0  0  0  0  0  0
  1  2  1  0
  2  3  2  0
  3  4  1  0
  4  5  2  3
  1  6  1  0
  4  7  1  0
  6  7  2  0
  5  8  1  0
  1  9  2  3
  9 10  1  0
  8 11  1  0
M  END
$$$$

     RDKit          3D

 11 12  0  0  0  0  0  0  0  0999 V2000
  138.9700  151.3143  142.5679 C   0  0  0  0  0  0  0  0  0  0  0  0
  138.6023  152.0885  143.2650 C   0  0  0  0  0  0  0  0  0  0  0  0
  137.4866  151.7382  144.1969 C   0  0  0  0  0  0  0  0  0  0  0  0
  139.9970  151.3974  141.4279 C   0  0  0  0  0  0  0  0  0  0  0  0
  137.1554  150.3528  144.0258 C   0  0  0  0  0  0  0  0  0  0  0  0
  139.6392  150.7247  140.2349 C   0  0  0  0  0  0  0  0  0  0  0  0
  138.1627  149.9703  142.4930 C   0  0  0  0  0  0  0  0  0  0  0  0
  137.5294  149.5981  143.2616 C   0  0  0  0  0  0  0  0  0  0  0  0
  138.6350  149.9084  140.0441 C   0  0  0  0  0  0  0  0  0  0  0  0
  138.2434  149.3499  141.0976 N   0  0  0  0  0  0  0  0  0  0  0  0
  137.0768  152.7219  145.1556 O   0  0  0  0  0  0  0  0  0  0  0  0
  1  2  1  0
  2  3  2  0
  1  4  1  0
  3  5  1  0
  4  6  2  0
  1  7  2  0
  5  8  2  0
  7  8  1  0
  6  9  1  0
  7 10  1  0
  9 10  2  0
  3 11  1  0
M  END
$$$$

     RDKit          3D

 11 11  0  0  0  0  0  0  0  0999 V2000
  138.9700  151.3143  142.5679 C   0  0  0  0  0  0  0  0  0  0  0  0
  138.6023  152.0885  143.2650 C   0  0  0  0  0  0  0  0  0  0  0  0
  137.6696  151.8114  144.0578 C   0  0  0  0  0  0  0  0  0  0  0  0
  136.5753  152.7057  144.5965 C   0  0  0  0  0  0  0  0  0  0  0  0
  135.5868  152.4509  145.5251 C   0  0  0  0  0  0  0  0  0  0  0  0
  135.6617  151.0048  145.8899 C   0  0  0  0  0  0  0  0  0  0  0  0
  139.9422  151.4878  141.3764 C   0  0  0  0  0  0  0  0  0  0  0  0
  137.2863  150.4066  144.6506 C   0  0  0  0  0  0  0  0  0  0  0  0
  134.6530  150.7185  146.9618 C   0  0  0  0  0  0  0  0  0  0  0  0
  139.8322  150.5311  140.2820 C   0  0  0  0  0  0  0  0  0  0  0  0
  136.4798  150.0318  145.4621 C   0  0  0  0  0  0  0  0  0  0  0  0
  1  2  2  3
  2  3  1  0
  3  4  1  0
  4  5  2  0
  5  6  1  0
  1  7  1  0
  3  8  2  0
  6  9  1  0
  7 10  1  0
  6 11  2  0
  8 11  1  0
M  END
$$$$

     RDKit          3D

 11 11  0  0  0  0  0  0  0  0999 V2000
  139.5345  150.8917  142.2314 C   0  0  0  0  0  0  0  0  0  0  0  0
  139.0136  150.3975  141.0588 C   0  0  0  0  0  0  0  0  0  0  0  0
  138.6967  150.9489  143.4038 C   0  0  0  0  0  0  0  0  0  0  0  0
  137.7126  149.9443  141.0453 C   0  0  0  0  0  0  0  0  0  0  0  0
  137.3879  150.5377  143.3311 C   0  0  0  0  0  0  0  0  0  0  0  0
  136.8221  150.1196  142.4161 C   0  0  0  0  0  0  0  0  0  0  0  0
  139.8764  150.3677  139.7286 C   0  0  0  0  0  0  0  0  0  0  0  0
  141.2531  150.3460  139.9373 C   0  0  0  0  0  0  0  0  0  0  0  0
  136.5447  150.7382  144.8827 Cl  0  0  0  0  0  0  0  0  0  0  0  0
  139.3152  150.3510  138.6203 C   0  0  0  0  0  0  0  0  0  0  0  0
  139.9316  150.5497  137.5302 C   0  0  0  0  0  0  0  0  0  0  0  0
  1  2  2  0
  1  3  1  0
  2  4  1  0
  3  5  2  0
  4  6  2  0
  5  6  1  0
  2  7  1  0
  7  8  1  0
  5  9  1  0
  7 10  2  3
 10 11  1  0
M  END
$$$$

     RDKit          3D

 11 12  0  0  0  0  0  0  0  0999 V2000
  138.7091  151.1474  142.6274 C   0  0  0  0  0  0  0  0  0  0  0  0
  138.5250  151.9378  143.5111 C   0  0  0  0  0  0  0  0  0  0  0  0
  137.3808  151.6590  144.3960 C   0  0  0  0  0  0  0  0  0  0  0  0
  139.6671  150.9842  141.6902 C   0  0  0  0  0  0  0  0  0  0  0  0
  136.7223  150.4781  143.9637 C   0  0  0  0  0  0  0  0  0  0  0  0
  137.7855  150.1127  142.3490 C   0  0  0  0  0  0  0  0  0  0  0  0
  138.1041  149.3710  141.0881 C   0  0  0  0  0  0  0  0  0  0  0  0
  139.6099  150.2285  140.5534 C   0  0  0  0  0  0  0  0  0  0  0  0
  135.5840  150.2567  145.0713 C   0  0  0  0  0  0  0  0  0  0  0  0
  136.6933  149.7413  143.0631 C   0  0  0  0  0  0  0  0  0  0  0  0
  140.3083  150.4182  139.7445 C   0  0  0  0  0  0  0  0  0  0  0  0
  1  2  1  0
  2  3  2  0
  1  4  1  0
  3  5  1  0
  1  6  2  0
  6  7  1  0
  4  8  1  0
  7  8  1  0
  5  9  1  0
  5 10  2  0
  6 10  1  0
  8 11  2  0
M  END
$$$$

     RDKit          3D

 11 12  0  0  0  0  0  0  0  0999 V2000
  138.7091  151.1474  142.6274 C   0  0  0  0  0  0  0  0  0  0  0  0
  138.5250  151.9378  143.5111 C   0  0  0  0  0  0  0  0  0  0  0  0
  137.3808  151.6590  144.3960 C   0  0  0  0  0  0  0  0  0  0  0  0
  139.6671  150.9842  141.6902 C   0  0  0  0  0  0  0  0  0  0  0  0
  136.7223  150.4781  143.9637 C   0  0  0  0  0  0  0  0  0  0  0  0
  137.6952  150.0834  142.3787 C   0  0  0  0  0  0  0  0  0  0  0  0
  138.0473  149.3792  141.0795 C   0  0  0  0  0  0  0  0  0  0  0  0
  139.4970  150.3391  140.5091 C   0  0  0  0  0  0  0  0  0  0  0  0
  136.6625  149.7122  143.0632 C   0  0  0  0  0  0  0  0  0  0  0  0
  137.1405  152.6207  145.6515 Cl  0  0  0  0  0  0  0  0  0  0  0  0
  140.2448  150.2872  139.7205 O   0  0  0  0  0  0  0  0  0  0  0  0
  1  2  1  0
  2  3  2  0
  1  4  1  0
  3  5  1  0
  1  6  2  0
  6  7  1  0
  4  8  1  0
  7  8  1  0
  5  9  2  0
  6  9  1  0
  3 10  1  0
  8 11  1  0
M  END
$$$$

     RDKit          3D

 11 12  0  0  0  0  0  0  0  0999 V2000
  138.7091  151.1474  142.6274 C   0  0  0  0  0  0  0  0  0  0  0  0
  138.5250  151.9378  143.5111 C   0  0  0  0  0  0  0  0  0  0  0  0
  137.3808  151.6590  144.3960 C   0  0  0  0  0  0  0  0  0  0  0  0
  139.6671  150.9842  141.6902 C   0  0  0  0  0  0  0  0  0  0  0  0
  136.7223  150.4781  143.9637 C   0  0  0  0  0  0  0  0  0  0  0  0
  137.6952  150.0834  142.3787 C   0  0  0  0  0  0  0  0  0  0  0  0
  138.0473  149.3792  141.0795 C   0  0  0  0  0  0  0  0  0  0  0  0
  136.7365  149.7536  143.0233 C   0  0  0  0  0  0  0  0  0  0  0  0
  137.1805  152.5300  145.5148 O   0  0  0  0  0  0  0  0  0  0  0  0
  137.3026  148.8174  140.2726 C   0  0  0  0  0  0  0  0  0  0  0  0
  139.2691  150.1192  140.8097 C   0  0  0  0  0  0  0  0  0  0  0  0
  1  2  1  0
  2  3  2  0
  1  4  1  0
  3  5  1  0
  1  6  2  0
  6  7  1  0
  5  8  2  0
  6  8  1  0
  3  9  1  0
  7 10  1  0
  4 11  2  0
  7 11  1  0
M  END
$$$$

     RDKit          3D

 11 12  0  0  0  0  0  0  0  0999 V2000
  138.7091  151.1474  142.6274 C   0  0  0  0  0  0  0  0  0  0  0  0
  138.5250  151.9378  143.5111 C   0  0  0  0  0  0  0  0  0  0  0  0
  137.3808  151.6590  144.3960 C   0  0  0  0  0  0  0  0  0  0  0  0
  139.6671  150.9842  141.6902 C   0  0  0  0  0  0  0  0  0  0  0  0
  136.7223  150.4781  143.9637 C   0  0  0  0  0  0  0  0  0  0  0  0
  137.6952  150.0834  142.3787 C   0  0  0  0  0  0  0  0  0  0  0  0
  138.0473  149.3792  141.0795 C   0  0  0  0  0  0  0  0  0  0  0  0
  136.7365  149.7536  143.0233 C   0  0  0  0  0  0  0  0  0  0  0  0
  139.3016  150.0153  140.5745 C   0  0  0  0  0  0  0  0  0  0  0  0
  136.9689  152.5498  145.6845 C   0  0  0  0  0  0  0  0  0  0  0  0
  139.8950  149.8199  139.4885 O   0  0  0  0  0  0  0  0  0  0  0  0
  1  2  1  0
  2  3  2  0
  1  4  1  0
  3  5  1  0
  1  6  2  0
  6  7  1  0
  5  8  2  0
  6  8  1  0
  4  9  1  0
  7  9  1  0
  3 10  1  0
  9 11  2  0
M  END
$$$$

     RDKit          3D

 11 12  0  0  0  0  0  0  0  0999 V2000
  139.2620  151.0920  142.4042 C   0  0  0  0  0  0  0  0  0  0  0  0
  138.8619  152.1309  142.9034 C   0  0  0  0  0  0  0  0  0  0  0  0
  137.7834  151.8925  143.8932 C   0  0  0  0  0  0  0  0  0  0  0  0
  137.3598  150.5409  144.0625 C   0  0  0  0  0  0  0  0  0  0  0  0
  136.3243  150.4647  145.1225 C   0  0  0  0  0  0  0  0  0  0  0  0
  139.2661  149.7548  142.8054 C   0  0  0  0  0  0  0  0  0  0  0  0
  137.9618  149.6107  143.5791 C   0  0  0  0  0  0  0  0  0  0  0  0
  140.3557  151.2785  141.2946 C   0  0  0  0  0  0  0  0  0  0  0  0
  135.7270  151.6123  145.4188 C   0  0  0  0  0  0  0  0  0  0  0  0
  139.9803  150.5977  140.0094 C   0  0  0  0  0  0  0  0  0  0  0  0
  136.9314  152.8399  144.6573 C   0  0  0  0  0  0  0  0  0  0  0  0
  1  2  1  0
  2  3  2  0
  3  4  1  0
  4  5  2  0
  1  6  1  0
  4  7  1  0
  6  7  2  0
  1  8  1  0
  5  9  1  0
  8 10  1  0
  3 11  1  0
  9 11  2  0
M  END
$$$$

     RDKit          3D

 11 12  0  0  0  0  0  0  0  0999 V2000
  139.2620  151.0920  142.4042 C   0  0  0  0  0  0  0  0  0  0  0  0
  138.8619  152.1309  142.9034 C   0  0  0  0  0  0  0  0  0  0  0  0
  137.9125  151.7980  143.7817 C   0  0  0  0  0  0  0  0  0  0  0  0
  138.7623  149.7969  142.5199 C   0  0  0  0  0  0  0  0  0  0  0  0
  137.2982  152.8723  144.6403 C   0  0  0  0  0  0  0  0  0  0  0  0
  137.4011  150.4535  144.0050 C   0  0  0  0  0  0  0  0  0  0  0  0
  136.4442  150.2742  145.0854 C   0  0  0  0  0  0  0  0  0  0  0  0
  137.9286  149.4919  143.4630 N   0  0  0  0  0  0  0  0  0  0  0  0
  135.9078  151.5018  145.6063 C   0  0  0  0  0  0  0  0  0  0  0  0
  134.8023  151.2942  146.6578 C   0  0  0  0  0  0  0  0  0  0  0  0
  136.3208  152.8106  145.3411 C   0  0  0  0  0  0  0  0  0  0  0  0
  1  2  1  0
  2  3  2  0
  1  4  2  0
  3  5  1  0
  3  6  1  0
  6  7  1  0
  4  8  1  0
  6  8  2  0
  7  9  2  0
  9 10  1  0
  5 11  2  0
  9 11  1  0
M  END
$$$$

     RDKit          3D

 11 11  0  0  0  0  0  0  0  0999 V2000
  140.3024  150.2148  139.4796 Cl  0  0  0  0  0  0  0  0  0  0  0  0
  138.6763  150.1843  140.5310 C   0  0  0  0  0  0  0  0  0  0  0  0
  137.6367  149.3820  140.0914 C   0  0  0  0  0  0  0  0  0  0  0  0
  138.7469  150.9460  141.6721 C   0  0  0  0  0  0  0  0  0  0  0  0
  136.5600  149.6018  140.7937 C   0  0  0  0  0  0  0  0  0  0  0  0
  137.6794  151.0376  142.4893 C   0  0  0  0  0  0  0  0  0  0  0  0
  135.2447  149.0952  140.3661 C   0  0  0  0  0  0  0  0  0  0  0  0
  136.5242  150.3975  142.0138 C   0  0  0  0  0  0  0  0  0  0  0  0
  137.6911  151.8262  143.7286 C   0  0  0  0  0  0  0  0  0  0  0  0
  136.6547  151.6015  144.6490 C   0  0  0  0  0  0  0  0  0  0  0  0
  135.9814  152.7563  145.2633 C   0  0  0  0  0  0  0  0  0  0  0  0
  1  2  1  0
  2  3  2  0
  2  4  1  0
  3  5  1  0
  4  6  2  0
  5  7  1  0
  5  8  2  0
  6  8  1  0
  6  9  1  0
  9 10  1  0
 10 11  1  0
M  END
$$$$

     RDKit          3D

 11 11  0  0  0  0  0  0  0  0999 V2000
  140.3024  150.2148  139.4796 Cl  0  0  0  0  0  0  0  0  0  0  0  0
  138.6763  150.1843  140.5310 C   0  0  0  0  0  0  0  0  0  0  0  0
  137.6367  149.3820  140.0914 C   0  0  0  0  0  0  0  0  0  0  0  0
  138.7469  150.9460  141.6721 C   0  0  0  0  0  0  0  0  0  0  0  0
  136.5600  149.6018  140.7937 C   0  0  0  0  0  0  0  0  0  0  0  0
  137.6794  151.0376  142.4893 C   0  0  0  0  0  0  0  0  0  0  0  0
  136.5064  150.3382  142.0055 C   0  0  0  0  0  0  0  0  0  0  0  0
  137.5898  151.8098  143.7405 C   0  0  0  0  0  0  0  0  0  0  0  0
  136.5556  151.5654  144.6232 C   0  0  0  0  0  0  0  0  0  0  0  0
  136.1674  152.6850  145.5148 C   0  0  0  0  0  0  0  0  0  0  0  0
  135.0159  152.6089  146.3162 C   0  0  0  0  0  0  0  0  0  0  0  0
  1  2  1  0
  2  3  2  0
  2  4  1  0
  3  5  1  0
  4  6  2  0
  5  7  2  0
  6  7  1  0
  6  8  1  0
  8  9  1  0
  9 10  1  0
 10 11  1  0
M  END
$$$$

     RDKit          3D

 11 11  0  0  0  0  0  0  0  0999 V2000
  139.3429  149.9930  140.5895 C   0  0  0  0  0  0  0  0  0  0  0  0
  138.9526  149.9228  139.3665 C   0  0  0  0  0  0  0  0  0  0  0  0
  138.6128  150.1151  141.6415 C   0  0  0  0  0  0  0  0  0  0  0  0
  137.1849  149.8640  141.8304 C   0  0  0  0  0  0  0  0  0  0  0  0
  136.5144  149.7572  140.5779 C   0  0  0  0  0  0  0  0  0  0  0  0
  139.1166  150.5253  143.0849 C   0  0  0  0  0  0  0  0  0  0  0  0
  137.2339  149.6975  139.2863 C   0  0  0  0  0  0  0  0  0  0  0  0
  138.2557  151.2012  143.8675 C   0  0  0  0  0  0  0  0  0  0  0  0
  137.1770  151.1313  144.2957 C   0  0  0  0  0  0  0  0  0  0  0  0
  136.4357  152.1974  144.9810 C   0  0  0  0  0  0  0  0  0  0  0  0
  135.1845  151.9629  145.5890 C   0  0  0  0  0  0  0  0  0  0  0  0
  1  2  2  0
  1  3  1  0
  3  4  1  0
  4  5  2  0
  3  6  1  0
  2  7  1  0
  5  7  1  0
  6  8  2  3
  8  9  1  0
  9 10  1  0
 10 11  1  0
M  END
$$$$

     RDKit          3D

 11 12  0  0  0  0  0  0  0  0999 V2000
  139.2620  151.0920  142.4042 C   0  0  0  0  0  0  0  0  0  0  0  0
  138.8619  152.1309  142.9034 C   0  0  0  0  0  0  0  0  0  0  0  0
  137.9125  151.7980  143.7817 C   0  0  0  0  0  0  0  0  0  0  0  0
  138.8290  150.4014  141.6007 C   0  0  0  0  0  0  0  0  0  0  0  0
  137.6686  149.9547  141.7571 C   0  0  0  0  0  0  0  0  0  0  0  0
  137.5096  152.5999  144.9582 C   0  0  0  0  0  0  0  0  0  0  0  0
  136.8118  150.7640  143.7827 C   0  0  0  0  0  0  0  0  0  0  0  0
  136.3087  153.1095  145.0927 C   0  0  0  0  0  0  0  0  0  0  0  0
  135.8601  150.9128  144.8103 C   0  0  0  0  0  0  0  0  0  0  0  0
  135.4721  151.9787  145.4091 C   0  0  0  0  0  0  0  0  0  0  0  0
  136.7849  149.9407  142.6979 C   0  0  0  0  0  0  0  0  0  0  0  0
  1  2  1  0
  2  3  2  0
  1  4  2  0
  4  5  1  0
  3  6  1  0
  3  7  1  0
  6  8  1  0
  7  9  2  0
  8 10  2  0
  9 10  1  0
  5 11  2  0
  7 11  1  0
M  END
$$$$

     RDKit          3D

 11 12  0  0  0  0  0  0  0  0999 V2000
  139.3429  149.9930  140.5895 C   0  0  0  0  0  0  0  0  0  0  0  0
  138.9526  149.9228  139.3665 C   0  0  0  0  0  0  0  0  0  0  0  0
  138.6128  150.1151  141.6415 C   0  0  0  0  0  0  0  0  0  0  0  0
  137.1849  149.8640  141.8304 C   0  0  0  0  0  0  0  0  0  0  0  0
  136.5144  149.7572  140.5779 C   0  0  0  0  0  0  0  0  0  0  0  0
  139.1166  150.5253  143.0849 C   0  0  0  0  0  0  0  0  0  0  0  0
  138.2341  151.1490  143.8701 C   0  0  0  0  0  0  0  0  0  0  0  0
  136.7763  150.4474  143.0471 C   0  0  0  0  0  0  0  0  0  0  0  0
  135.1534  149.5205  140.5422 C   0  0  0  0  0  0  0  0  0  0  0  0
  139.6665  149.8826  138.1834 C   0  0  0  0  0  0  0  0  0  0  0  0
  137.4290  149.6453  139.2873 C   0  0  0  0  0  0  0  0  0  0  0  0
  1  2  2  0
  1  3  1  0
  3  4  1  0
  4  5  2  0
  3  6  1  0
  6  7  2  0
  4  8  1  0
  7  8  1  0
  5  9  1  0
  2 10  1  0
  2 11  1  0
  5 11  1  0
M  END
$$$$

     RDKit          3D

 11 12  0  0  0  0  0  0  0  0999 V2000
  138.7091  151.1474  142.6274 C   0  0  0  0  0  0  0  0  0  0  0  0
  138.5250  151.9378  143.5111 C   0  0  0  0  0  0  0  0  0  0  0  0
  137.3808  151.6590  144.3960 C   0  0  0  0  0  0  0  0  0  0  0  0
  139.6671  150.9842  141.6902 C   0  0  0  0  0  0  0  0  0  0  0  0
  136.7223  150.4781  143.9637 C   0  0  0  0  0  0  0  0  0  0  0  0
  137.6952  150.0834  142.3787 C   0  0  0  0  0  0  0  0  0  0  0  0
  138.0473  149.3792  141.0795 C   0  0  0  0  0  0  0  0  0  0  0  0
  136.7365  149.7536  143.0233 C   0  0  0  0  0  0  0  0  0  0  0  0
  139.3016  150.0153  140.5745 C   0  0  0  0  0  0  0  0  0  0  0  0
  136.9689  152.5498  145.6845 C   0  0  0  0  0  0  0  0  0  0  0  0
  140.0310  150.2265  139.6227 O   0  0  0  0  0  0  0  0  0  0  0  0
  1  2  1  0
  2  3  2  0
  1  4  1  0
  3  5  1  0
  1  6  2  0
  6  7  1  0
  5  8  2  0
  6  8  1  0
  4  9  1  0
  7  9  1  0
  3 10  1  0
  9 11  1  0
M  END
$$$$

     RDKit          3D

 11 12  0  0  0  0  0  0  0  0999 V2000
  138.7091  151.1474  142.6274 C   0  0  0  0  0  0  0  0  0  0  0  0
  138.5250  151.9378  143.5111 C   0  0  0  0  0  0  0  0  0  0  0  0
  137.3808  151.6590  144.3960 C   0  0  0  0  0  0  0  0  0  0  0  0
  139.6671  150.9842  141.6902 C   0  0  0  0  0  0  0  0  0  0  0  0
  136.7223  150.4781  143.9637 C   0  0  0  0  0  0  0  0  0  0  0  0
  137.7855  150.1127  142.3490 C   0  0  0  0  0  0  0  0  0  0  0  0
  138.1041  149.3710  141.0881 C   0  0  0  0  0  0  0  0  0  0  0  0
  136.8628  149.7772  142.9746 N   0  0  0  0  0  0  0  0  0  0  0  0
  137.0715  152.5403  145.6372 C   0  0  0  0  0  0  0  0  0  0  0  0
  135.7644  152.4357  146.1140 C   0  0  0  0  0  0  0  0  0  0  0  0
  139.3058  150.0176  140.5551 C   0  0  0  0  0  0  0  0  0  0  0  0
  1  2  1  0
  2  3  2  0
  1  4  1  0
  3  5  1  0
  1  6  2  0
  6  7  1  0
  5  8  2  0
  6  8  1  0
  3  9  1  0
  9 10  1  0
  4 11  2  0
  7 11  1  0
M  END
$$$$

     RDKit          3D

 11 11  0  0  0  0  0  0  0  0999 V2000
  139.3946  150.7519  142.0139 C   0  0  0  0  0  0  0  0  0  0  0  0
  139.0647  150.4900  140.7537 C   0  0  0  0  0  0  0  0  0  0  0  0
  138.4477  150.6373  143.0427 C   0  0  0  0  0  0  0  0  0  0  0  0
  137.8331  149.9847  140.4384 C   0  0  0  0  0  0  0  0  0  0  0  0
  136.8990  149.7655  141.3322 C   0  0  0  0  0  0  0  0  0  0  0  0
  138.7710  151.0481  144.4226 C   0  0  0  0  0  0  0  0  0  0  0  0
  137.5960  151.6420  145.1154 C   0  0  0  0  0  0  0  0  0  0  0  0
  137.0599  150.2991  142.6638 C   0  0  0  0  0  0  0  0  0  0  0  0
  140.0692  150.6270  139.6865 C   0  0  0  0  0  0  0  0  0  0  0  0
  136.7221  151.4935  145.8164 C   0  0  0  0  0  0  0  0  0  0  0  0
  135.5162  152.1043  145.6680 C   0  0  0  0  0  0  0  0  0  0  0  0
  1  2  2  0
  1  3  1  0
  2  4  1  0
  4  5  2  0
  3  6  1  0
  6  7  2  3
  3  8  2  0
  5  8  1  0
  2  9  1  0
  7 10  1  0
 10 11  1  0
M  END
$$$$

     RDKit          3D

 11 11  0  0  0  0  0  0  0  0999 V2000
  140.3024  150.2148  139.4796 Cl  0  0  0  0  0  0  0  0  0  0  0  0
  138.6763  150.1843  140.5310 C   0  0  0  0  0  0  0  0  0  0  0  0
  137.6367  149.3820  140.0914 C   0  0  0  0  0  0  0  0  0  0  0  0
  138.7469  150.9460  141.6721 C   0  0  0  0  0  0  0  0  0  0  0  0
  136.5600  149.6018  140.7937 C   0  0  0  0  0  0  0  0  0  0  0  0
  137.6794  151.0376  142.4893 C   0  0  0  0  0  0  0  0  0  0  0  0
  136.5064  150.3382  142.0055 C   0  0  0  0  0  0  0  0  0  0  0  0
  137.5898  151.8098  143.7405 C   0  0  0  0  0  0  0  0  0  0  0  0
  136.5556  151.5654  144.6232 C   0  0  0  0  0  0  0  0  0  0  0  0
  136.1674  152.6850  145.5148 C   0  0  0  0  0  0  0  0  0  0  0  0
  136.7774  153.7799  145.4347 C   0  0  0  0  0  0  0  0  0  0  0  0
  1  2  1  0
  2  3  2  0
  2  4  1  0
  3  5  1  0
  4  6  2  0
  5  7  2  0
  6  7  1  0
  6  8  1  0
  8  9  1  0
  9 10  1  0
 10 11  2  0
M  END
$$$$

     RDKit          3D

 12 13  0  0  0  0  0  0  0  0999 V2000
  139.3946  150.7519  142.0139 C   0  0  0  0  0  0  0  0  0  0  0  0
  139.0647  150.4900  140.7537 C   0  0  0  0  0  0  0  0  0  0  0  0
  138.4477  150.6373  143.0427 C   0  0  0  0  0  0  0  0  0  0  0  0
  137.8331  149.9847  140.4384 C   0  0  0  0  0  0  0  0  0  0  0  0
  137.5386  149.5898  139.0385 C   0  0  0  0  0  0  0  0  0  0  0  0
  136.8651  149.8612  141.4872 C   0  0  0  0  0  0  0  0  0  0  0  0
  138.8185  151.0217  144.4300 C   0  0  0  0  0  0  0  0  0  0  0  0
  137.6912  151.6712  145.1628 C   0  0  0  0  0  0  0  0  0  0  0  0
  136.4476  151.5965  144.6216 C   0  0  0  0  0  0  0  0  0  0  0  0
  136.0924  151.2217  143.6564 C   0  0  0  0  0  0  0  0  0  0  0  0
  137.0689  150.5532  142.6826 C   0  0  0  0  0  0  0  0  0  0  0  0
  135.1546  152.3985  145.7721 Cl  0  0  0  0  0  0  0  0  0  0  0  0
  1  2  2  0
  1  3  1  0
  2  4  1  0
  4  5  1  0
  4  6  2  0
  3  7  1  0
  7  8  2  0
  8  9  1  0
  9 10  2  0
  3 11  2  0
  6 11  1  0
 10 11  1  0
  9 12  1  0
M  END
$$$$

     RDKit          3D

 12 13  0  0  0  0  0  0  0  0999 V2000
  138.7091  151.1474  142.6274 C   0  0  0  0  0  0  0  0  0  0  0  0
  138.5250  151.9378  143.5111 C   0  0  0  0  0  0  0  0  0  0  0  0
  137.3808  151.6590  144.3960 C   0  0  0  0  0  0  0  0  0  0  0  0
  139.6671  150.9842  141.6902 C   0  0  0  0  0  0  0  0  0  0  0  0
  136.7223  150.4781  143.9637 C   0  0  0  0  0  0  0  0  0  0  0  0
  137.7855  150.1127  142.3490 C   0  0  0  0  0  0  0  0  0  0  0  0
  138.1041  149.3710  141.0881 C   0  0  0  0  0  0  0  0  0  0  0  0
  135.5649  150.2222  145.0422 C   0  0  0  0  0  0  0  0  0  0  0  0
  138.9604  150.0716  140.3209 C   0  0  0  0  0  0  0  0  0  0  0  0
  136.8400  149.8527  143.1906 N   0  0  0  0  0  0  0  0  0  0  0  0
  138.8824  149.4579  138.8131 C   0  0  0  0  0  0  0  0  0  0  0  0
  139.9673  150.7675  140.5650 C   0  0  0  0  0  0  0  0  0  0  0  0
  1  2  1  0
  2  3  2  0
  1  4  1  0
  3  5  1  0
  1  6  2  0
  6  7  1  0
  5  8  1  0
  7  9  2  0
  5 10  2  0
  6 10  1  0
  9 11  1  0
  4 12  2  0
  9 12  1  0
M  END
$$$$

     RDKit          3D

 12 13  0  0  0  0  0  0  0  0999 V2000
  139.2620  151.0920  142.4042 C   0  0  0  0  0  0  0  0  0  0  0  0
  138.8619  152.1309  142.9034 C   0  0  0  0  0  0  0  0  0  0  0  0
  137.7834  151.8925  143.8932 C   0  0  0  0  0  0  0  0  0  0  0  0
  137.3598  150.5409  144.0625 C   0  0  0  0  0  0  0  0  0  0  0  0
  136.3243  150.4647  145.1225 C   0  0  0  0  0  0  0  0  0  0  0  0
  139.2661  149.7548  142.8054 C   0  0  0  0  0  0  0  0  0  0  0  0
  137.9618  149.6107  143.5791 C   0  0  0  0  0  0  0  0  0  0  0  0
  140.3557  151.2785  141.2946 C   0  0  0  0  0  0  0  0  0  0  0  0
  139.9713  150.5132  140.0182 C   0  0  0  0  0  0  0  0  0  0  0  0
  135.7294  151.6043  145.4300 C   0  0  0  0  0  0  0  0  0  0  0  0
  135.0303  151.8094  146.5581 C   0  0  0  0  0  0  0  0  0  0  0  0
  136.9382  152.8736  144.6334 C   0  0  0  0  0  0  0  0  0  0  0  0
  1  2  1  0
  2  3  2  0
  3  4  1  0
  4  5  2  0
  1  6  1  0
  4  7  1  0
  6  7  2  0
  1  8  1  0
  8  9  1  0
  5 10  1  0
 10 11  1  0
  3 12  1  0
 10 12  1  0
M  END
$$$$

     RDKit          3D

 12 13  0  0  0  0  0  0  0  0999 V2000
  138.7091  151.1474  142.6274 C   0  0  0  0  0  0  0  0  0  0  0  0
  138.5250  151.9378  143.5111 C   0  0  0  0  0  0  0  0  0  0  0  0
  137.3808  151.6590  144.3960 C   0  0  0  0  0  0  0  0  0  0  0  0
  139.6671  150.9842  141.6902 C   0  0  0  0  0  0  0  0  0  0  0  0
  136.7223  150.4781  143.9637 C   0  0  0  0  0  0  0  0  0  0  0  0
  137.7855  150.1127  142.3490 C   0  0  0  0  0  0  0  0  0  0  0  0
  138.1041  149.3710  141.0881 C   0  0  0  0  0  0  0  0  0  0  0  0
  137.2573  148.9419  140.1763 C   0  0  0  0  0  0  0  0  0  0  0  0
  136.7739  149.7552  143.0386 C   0  0  0  0  0  0  0  0  0  0  0  0
  139.4792  150.0700  140.6578 C   0  0  0  0  0  0  0  0  0  0  0  0
  140.1524  149.7626  139.6157 O   0  0  0  0  0  0  0  0  0  0  0  0
  137.1519  152.6259  145.6575 C   0  0  0  0  0  0  0  0  0  0  0  0
  1  2  1  0
  2  3  2  0
  1  4  1  0
  3  5  1  0
  1  6  2  0
  6  7  1  0
  7  8  1  0
  5  9  2  0
  6  9  1  0
  4 10  1  0
  7 10  1  0
 10 11  2  0
  3 12  1  0
M  END
$$$$

     RDKit          3D

 12 13  0  0  0  0  0  0  0  0999 V2000
  139.3946  150.7519  142.0139 C   0  0  0  0  0  0  0  0  0  0  0  0
  139.0647  150.4900  140.7537 C   0  0  0  0  0  0  0  0  0  0  0  0
  138.4477  150.6373  143.0427 C   0  0  0  0  0  0  0  0  0  0  0  0
  137.8331  149.9847  140.4384 C   0  0  0  0  0  0  0  0  0  0  0  0
  136.8990  149.7655  141.3322 C   0  0  0  0  0  0  0  0  0  0  0  0
  138.7710  151.0481  144.4226 C   0  0  0  0  0  0  0  0  0  0  0  0
  137.5960  151.6420  145.1154 C   0  0  0  0  0  0  0  0  0  0  0  0
  135.4679  149.4838  140.9159 C   0  0  0  0  0  0  0  0  0  0  0  0
  136.4963  151.6340  144.5181 C   0  0  0  0  0  0  0  0  0  0  0  0
  136.1301  151.2219  143.4596 C   0  0  0  0  0  0  0  0  0  0  0  0
  137.0412  150.5856  142.6761 C   0  0  0  0  0  0  0  0  0  0  0  0
  135.3182  152.4489  145.5246 C   0  0  0  0  0  0  0  0  0  0  0  0
  1  2  2  0
  1  3  1  0
  2  4  1  0
  4  5  2  0
  3  6  1  0
  6  7  2  0
  5  8  1  0
  7  9  1  0
  9 10  2  0
  3 11  2  0
  5 11  1  0
 10 11  1  0
  9 12  1  0
M  END
$$$$

     RDKit          3D

 12 13  0  0  0  0  0  0  0  0999 V2000
  139.2620  151.0920  142.4042 C   0  0  0  0  0  0  0  0  0  0  0  0
  138.8619  152.1309  142.9034 C   0  0  0  0  0  0  0  0  0  0  0  0
  137.7834  151.8925  143.8932 C   0  0  0  0  0  0  0  0  0  0  0  0
  137.3598  150.5409  144.0625 C   0  0  0  0  0  0  0  0  0  0  0  0
  136.3243  150.4647  145.1225 C   0  0  0  0  0  0  0  0  0  0  0  0
  139.2661  149.7548  142.8054 C   0  0  0  0  0  0  0  0  0  0  0  0
  137.9618  149.6107  143.5791 C   0  0  0  0  0  0  0  0  0  0  0  0
  140.3557  151.2785  141.2946 C   0  0  0  0  0  0  0  0  0  0  0  0
  135.7270  151.6123  145.4188 C   0  0  0  0  0  0  0  0  0  0  0  0
  139.9803  150.5977  140.0094 C   0  0  0  0  0  0  0  0  0  0  0  0
  136.9314  152.8399  144.6573 C   0  0  0  0  0  0  0  0  0  0  0  0
  136.0708  152.7215  145.4802 C   0  0  0  0  0  0  0  0  0  0  0  0
  1  2  1  0
  2  3  2  0
  3  4  1  0
  4  5  2  0
  1  6  1  0
  4  7  1  0
  6  7  2  0
  1  8  1  0
  5  9  1  0
  8 10  1  0
  3 11  1  0
  9 12  2  0
 11 12  2  0
M  END
$$$$

     RDKit          3D

 12 12  0  0  0  0  0  0  0  0999 V2000
  139.5546  150.5076  140.4455 C   0  0  0  0  0  0  0  0  0  0  0  0
  139.2164  150.0146  139.3742 C   0  0  0  0  0  0  0  0  0  0  0  0
  138.8577  150.3073  141.5866 C   0  0  0  0  0  0  0  0  0  0  0  0
  137.9802  149.2985  139.2390 C   0  0  0  0  0  0  0  0  0  0  0  0
  137.2016  149.2056  140.2784 C   0  0  0  0  0  0  0  0  0  0  0  0
  135.7673  148.7987  140.2461 C   0  0  0  0  0  0  0  0  0  0  0  0
  139.4101  150.8793  142.9241 C   0  0  0  0  0  0  0  0  0  0  0  0
  138.3780  151.0479  144.0095 C   0  0  0  0  0  0  0  0  0  0  0  0
  137.1920  151.0047  143.6833 C   0  0  0  0  0  0  0  0  0  0  0  0
  136.2389  151.5051  144.7137 C   0  0  0  0  0  0  0  0  0  0  0  0
  136.4805  151.4470  146.0663 C   0  0  0  0  0  0  0  0  0  0  0  0
  137.6182  149.8423  141.5175 C   0  0  0  0  0  0  0  0  0  0  0  0
  1  2  2  0
  1  3  1  0
  2  4  1  0
  4  5  2  0
  5  6  1  0
  3  7  1  0
  7  8  2  3
  8  9  1  0
  9 10  1  0
 10 11  1  0
  3 12  2  0
  5 12  1  0
M  END
$$$$

     RDKit          3D

 12 13  0  0  0  0  0  0  0  0999 V2000
  139.3946  150.7519  142.0139 C   0  0  0  0  0  0  0  0  0  0  0  0
  139.0647  150.4900  140.7537 C   0  0  0  0  0  0  0  0  0  0  0  0
  138.4477  150.6373  143.0427 C   0  0  0  0  0  0  0  0  0  0  0  0
  137.8331  149.9847  140.4384 C   0  0  0  0  0  0  0  0  0  0  0  0
  136.8172  149.7858  141.4639 C   0  0  0  0  0  0  0  0  0  0  0  0
  138.7924  151.0563  144.4369 C   0  0  0  0  0  0  0  0  0  0  0  0
  137.7738  151.8330  144.9215 C   0  0  0  0  0  0  0  0  0  0  0  0
  136.5196  151.8512  144.4185 C   0  0  0  0  0  0  0  0  0  0  0  0
  136.2203  151.1737  143.2410 C   0  0  0  0  0  0  0  0  0  0  0  0
  140.0762  150.7449  139.7212 C   0  0  0  0  0  0  0  0  0  0  0  0
  137.0261  150.5764  142.6097 C   0  0  0  0  0  0  0  0  0  0  0  0
  135.4585  152.7474  145.3136 C   0  0  0  0  0  0  0  0  0  0  0  0
  1  2  2  0
  1  3  1  0
  2  4  1  0
  4  5  2  0
  3  6  1  0
  6  7  2  0
  7  8  1  0
  8  9  2  0
  2 10  1  0
  3 11  2  0
  5 11  1  0
  9 11  1  0
  8 12  1  0
M  END
$$$$

     RDKit          3D

 12 13  0  0  0  0  0  0  0  0999 V2000
  140.3024  150.2148  139.4796 Cl  0  0  0  0  0  0  0  0  0  0  0  0
  138.6763  150.1843  140.5310 C   0  0  0  0  0  0  0  0  0  0  0  0
  137.6367  149.3820  140.0914 C   0  0  0  0  0  0  0  0  0  0  0  0
  138.8646  150.7169  141.4514 C   0  0  0  0  0  0  0  0  0  0  0  0
  136.4740  149.4736  140.9548 C   0  0  0  0  0  0  0  0  0  0  0  0
  137.8055  150.8841  142.4594 C   0  0  0  0  0  0  0  0  0  0  0  0
  137.9619  151.6087  143.7233 C   0  0  0  0  0  0  0  0  0  0  0  0
  136.8776  151.8382  144.5067 C   0  0  0  0  0  0  0  0  0  0  0  0
  135.2432  149.0190  140.4385 C   0  0  0  0  0  0  0  0  0  0  0  0
  135.7354  151.1338  144.2605 C   0  0  0  0  0  0  0  0  0  0  0  0
  136.5608  150.2809  141.9766 C   0  0  0  0  0  0  0  0  0  0  0  0
  135.5138  150.7214  143.1168 C   0  0  0  0  0  0  0  0  0  0  0  0
  1  2  1  0
  2  3  2  0
  2  4  1  0
  3  5  1  0
  4  6  2  0
  6  7  1  0
  7  8  2  0
  5  9  1  0
  8 10  1  0
  5 11  2  0
  6 11  1  0
 10 12  2  0
 11 12  1  0
M  END
$$$$

     RDKit          3D

 12 13  0  0  0  0  0  0  0  0999 V2000
  139.3429  149.9930  140.5895 C   0  0  0  0  0  0  0  0  0  0  0  0
  138.9526  149.9228  139.3665 C   0  0  0  0  0  0  0  0  0  0  0  0
  138.6128  150.1151  141.6415 C   0  0  0  0  0  0  0  0  0  0  0  0
  137.1849  149.8640  141.8304 C   0  0  0  0  0  0  0  0  0  0  0  0
  136.5144  149.7572  140.5779 C   0  0  0  0  0  0  0  0  0  0  0  0
  139.1166  150.5253  143.0849 C   0  0  0  0  0  0  0  0  0  0  0  0
  138.1694  151.0130  144.0451 C   0  0  0  0  0  0  0  0  0  0  0  0
  136.8764  150.9305  143.8065 C   0  0  0  0  0  0  0  0  0  0  0  0
  136.2382  150.3581  142.9441 C   0  0  0  0  0  0  0  0  0  0  0  0
  136.0817  151.4478  145.0607 C   0  0  0  0  0  0  0  0  0  0  0  0
  137.4371  149.6339  139.2579 C   0  0  0  0  0  0  0  0  0  0  0  0
  135.2131  152.4046  144.9334 C   0  0  0  0  0  0  0  0  0  0  0  0
  1  2  2  0
  1  3  1  0
  3  4  1  0
  4  5  2  0
  3  6  1  0
  6  7  2  0
  7  8  1  0
  4  9  1  0
  8  9  2  0
  8 10  1  0
  2 11  1  0
  5 11  1  0
 10 12  2  0
M  END
$$$$

     RDKit          3D

 12 13  0  0  0  0  0  0  0  0999 V2000
  139.0001  149.7643  140.3654 C   0  0  0  0  0  0  0  0  0  0  0  0
  138.7141  149.5451  139.1252 C   0  0  0  0  0  0  0  0  0  0  0  0
  138.1592  150.0995  141.2821 C   0  0  0  0  0  0  0  0  0  0  0  0
  137.3238  149.5788  138.6759 C   0  0  0  0  0  0  0  0  0  0  0  0
  137.0151  149.1362  137.4394 O   0  0  0  0  0  0  0  0  0  0  0  0
  136.3858  149.5936  139.3472 C   0  0  0  0  0  0  0  0  0  0  0  0
  135.0528  149.6286  139.2752 C   0  0  0  0  0  0  0  0  0  0  0  0
  138.5598  150.4914  142.6508 C   0  0  0  0  0  0  0  0  0  0  0  0
  137.6889  150.9036  143.6523 C   0  0  0  0  0  0  0  0  0  0  0  0
  136.4231  150.8736  143.2321 C   0  0  0  0  0  0  0  0  0  0  0  0
  136.0503  150.5463  141.9185 C   0  0  0  0  0  0  0  0  0  0  0  0
  136.7687  150.1534  140.9885 C   0  0  0  0  0  0  0  0  0  0  0  0
  1  2  2  0
  1  3  1  0
  2  4  1  0
  4  5  1  0
  4  6  2  0
  6  7  1  0
  3  8  1  0
  8  9  2  0
  9 10  1  0
 10 11  2  0
  3 12  2  0
  6 12  1  0
 11 12  1  0
M  END
$$$$

     RDKit          3D

 12 13  0  0  0  0  0  0  0  0999 V2000
  139.2620  151.0920  142.4042 C   0  0  0  0  0  0  0  0  0  0  0  0
  138.8619  152.1309  142.9034 C   0  0  0  0  0  0  0  0  0  0  0  0
  137.9125  151.7980  143.7817 C   0  0  0  0  0  0  0  0  0  0  0  0
  138.8290  150.4014  141.6007 C   0  0  0  0  0  0  0  0  0  0  0  0
  137.6686  149.9547  141.7571 C   0  0  0  0  0  0  0  0  0  0  0  0
  137.5096  152.5999  144.9582 C   0  0  0  0  0  0  0  0  0  0  0  0
  136.8118  150.7640  143.7827 C   0  0  0  0  0  0  0  0  0  0  0  0
  135.9232  150.7938  144.8969 C   0  0  0  0  0  0  0  0  0  0  0  0
  136.0019  151.8141  145.6610 C   0  0  0  0  0  0  0  0  0  0  0  0
  136.8505  149.5894  140.6103 C   0  0  0  0  0  0  0  0  0  0  0  0
  136.7475  149.9955  142.7453 N   0  0  0  0  0  0  0  0  0  0  0  0
  136.7547  152.7036  145.6837 C   0  0  0  0  0  0  0  0  0  0  0  0
  1  2  1  0
  2  3  2  0
  1  4  2  0
  4  5  1  0
  3  6  1  0
  3  7  1  0
  7  8  2  0
  8  9  1  0
  5 10  1  0
  5 11  2  0
  7 11  1  0
  6 12  1  0
  9 12  2  0
M  END
$$$$

     RDKit          3D

 12 13  0  0  0  0  0  0  0  0999 V2000
  139.3429  149.9930  140.5895 C   0  0  0  0  0  0  0  0  0  0  0  0
  138.9526  149.9228  139.3665 C   0  0  0  0  0  0  0  0  0  0  0  0
  138.6128  150.1151  141.6415 C   0  0  0  0  0  0  0  0  0  0  0  0
  137.1849  149.8640  141.8304 C   0  0  0  0  0  0  0  0  0  0  0  0
  136.5144  149.7572  140.5779 C   0  0  0  0  0  0  0  0  0  0  0  0
  139.1889  150.4046  143.0744 C   0  0  0  0  0  0  0  0  0  0  0  0
  138.2456  150.9517  144.0738 C   0  0  0  0  0  0  0  0  0  0  0  0
  136.7330  150.3979  143.0627 C   0  0  0  0  0  0  0  0  0  0  0  0
  139.6909  149.9363  138.1839 C   0  0  0  0  0  0  0  0  0  0  0  0
  137.1310  150.7054  144.1087 C   0  0  0  0  0  0  0  0  0  0  0  0
  136.3036  151.3842  145.2572 C   0  0  0  0  0  0  0  0  0  0  0  0
  137.4474  149.7042  139.3593 C   0  0  0  0  0  0  0  0  0  0  0  0
  1  2  2  0
  1  3  1  0
  3  4  1  0
  4  5  2  0
  3  6  1  0
  6  7  2  0
  4  8  1  0
  2  9  1  0
  7 10  1  0
  8 10  2  0
 10 11  1  0
  2 12  1  0
  5 12  1  0
M  END
$$$$

     RDKit          3D

 12 13  0  0  0  0  0  0  0  0999 V2000
  138.7091  151.1474  142.6274 C   0  0  0  0  0  0  0  0  0  0  0  0
  138.5250  151.9378  143.5111 C   0  0  0  0  0  0  0  0  0  0  0  0
  137.3808  151.6590  144.3960 C   0  0  0  0  0  0  0  0  0  0  0  0
  139.6671  150.9842  141.6902 C   0  0  0  0  0  0  0  0  0  0  0  0
  136.7223  150.4781  143.9637 C   0  0  0  0  0  0  0  0  0  0  0  0
  137.6952  150.0834  142.3787 C   0  0  0  0  0  0  0  0  0  0  0  0
  138.0473  149.3792  141.0795 C   0  0  0  0  0  0  0  0  0  0  0  0
  136.7365  149.7536  143.0233 C   0  0  0  0  0  0  0  0  0  0  0  0
  139.3016  150.0153  140.5745 C   0  0  0  0  0  0  0  0  0  0  0  0
  136.9689  152.5498  145.6845 C   0  0  0  0  0  0  0  0  0  0  0  0
  139.8950  149.8199  139.4885 C   0  0  0  0  0  0  0  0  0  0  0  0
  140.9836  150.6747  139.0286 C   0  0  0  0  0  0  0  0  0  0  0  0
  1  2  1  0
  2  3  2  0
  1  4  1  0
  3  5  1  0
  1  6  2  0
  6  7  1  0
  5  8  2  0
  6  8  1  0
  4  9  1  0
  7  9  1  0
  3 10  1  0
  9 11  2  3
 11 12  1  0
M  END
$$$$

     RDKit          3D

 12 13  0  0  0  0  0  0  0  0999 V2000
  138.7091  151.1474  142.6274 C   0  0  0  0  0  0  0  0  0  0  0  0
  138.5250  151.9378  143.5111 C   0  0  0  0  0  0  0  0  0  0  0  0
  137.3808  151.6590  144.3960 C   0  0  0  0  0  0  0  0  0  0  0  0
  139.6671  150.9842  141.6902 C   0  0  0  0  0  0  0  0  0  0  0  0
  136.7223  150.4781  143.9637 C   0  0  0  0  0  0  0  0  0  0  0  0
  137.6952  150.0834  142.3787 C   0  0  0  0  0  0  0  0  0  0  0  0
  138.0473  149.3792  141.0795 C   0  0  0  0  0  0  0  0  0  0  0  0
  139.4970  150.3391  140.5091 C   0  0  0  0  0  0  0  0  0  0  0  0
  137.1813  152.6075  145.4741 O   0  0  0  0  0  0  0  0  0  0  0  0
  139.9596  150.2341  139.4262 O   0  0  0  0  0  0  0  0  0  0  0  0
  135.9164  153.0729  145.3745 C   0  0  0  0  0  0  0  0  0  0  0  0
  136.8135  149.6835  143.0230 C   0  0  0  0  0  0  0  0  0  0  0  0
  1  2  1  0
  2  3  2  0
  1  4  1  0
  3  5  1  0
  1  6  2  0
  6  7  1  0
  4  8  1  0
  7  8  1  0
  3  9  1  0
  8 10  2  0
  9 11  1  0
  5 12  2  0
  6 12  1  0
M  END
$$$$

     RDKit          3D

 12 12  0  0  0  0  0  0  0  0999 V2000
  140.3024  150.2148  139.4796 Cl  0  0  0  0  0  0  0  0  0  0  0  0
  138.6763  150.1843  140.5310 C   0  0  0  0  0  0  0  0  0  0  0  0
  137.6367  149.3820  140.0914 C   0  0  0  0  0  0  0  0  0  0  0  0
  138.8646  150.7169  141.4514 C   0  0  0  0  0  0  0  0  0  0  0  0
  137.5305  148.8052  138.7934 C   0  0  0  0  0  0  0  0  0  0  0  0
  137.9001  150.8460  142.6225 C   0  0  0  0  0  0  0  0  0  0  0  0
  136.5033  149.4573  141.0392 C   0  0  0  0  0  0  0  0  0  0  0  0
  135.2577  149.0368  140.6689 C   0  0  0  0  0  0  0  0  0  0  0  0
  136.7794  150.1850  142.2772 C   0  0  0  0  0  0  0  0  0  0  0  0
  138.0344  151.5282  143.8372 C   0  0  0  0  0  0  0  0  0  0  0  0
  136.9668  151.7378  144.6322 C   0  0  0  0  0  0  0  0  0  0  0  0
  136.4113  152.9175  144.7367 C   0  0  0  0  0  0  0  0  0  0  0  0
  1  2  1  0
  2  3  2  0
  2  4  1  0
  3  5  1  0
  4  6  2  0
  3  7  1  0
  7  8  1  0
  6  9  1  0
  7  9  2  0
  6 10  1  0
 10 11  1  0
 11 12  1  0
M  END
$$$$

     RDKit          3D

 12 13  0  0  0  0  0  0  0  0999 V2000
  139.5546  150.5076  140.4455 C   0  0  0  0  0  0  0  0  0  0  0  0
  139.2164  150.0146  139.3742 C   0  0  0  0  0  0  0  0  0  0  0  0
  138.8577  150.3073  141.5866 C   0  0  0  0  0  0  0  0  0  0  0  0
  139.2276  150.3508  142.8915 C   0  0  0  0  0  0  0  0  0  0  0  0
  138.3509  151.0011  143.9757 C   0  0  0  0  0  0  0  0  0  0  0  0
  137.0512  151.0931  143.5479 C   0  0  0  0  0  0  0  0  0  0  0  0
  136.6885  151.0862  142.4321 C   0  0  0  0  0  0  0  0  0  0  0  0
  137.8089  149.6165  139.2477 C   0  0  0  0  0  0  0  0  0  0  0  0
  137.4177  150.5396  141.3641 C   0  0  0  0  0  0  0  0  0  0  0  0
  136.1089  151.4533  144.8763 C   0  0  0  0  0  0  0  0  0  0  0  0
  136.9195  150.0169  140.2713 C   0  0  0  0  0  0  0  0  0  0  0  0
  135.3743  152.5804  144.7918 C   0  0  0  0  0  0  0  0  0  0  0  0
  1  2  2  0
  1  3  1  0
  3  4  1  0
  4  5  2  0
  5  6  1  0
  6  7  2  0
  2  8  1  0
  3  9  2  0
  7  9  1  0
  6 10  1  0
  8 11  2  0
  9 11  1  0
 10 12  1  0
M  END
$$$$

     RDKit          3D

 12 13  0  0  0  0  0  0  0  0999 V2000
  139.0001  149.7643  140.3654 C   0  0  0  0  0  0  0  0  0  0  0  0
  138.7141  149.5451  139.1252 C   0  0  0  0  0  0  0  0  0  0  0  0
  138.1592  150.0995  141.2821 C   0  0  0  0  0  0  0  0  0  0  0  0
  137.3238  149.5788  138.6759 C   0  0  0  0  0  0  0  0  0  0  0  0
  136.7102  150.0158  141.0157 C   0  0  0  0  0  0  0  0  0  0  0  0
  135.7301  150.2148  142.0235 C   0  0  0  0  0  0  0  0  0  0  0  0
  136.2830  149.7058  139.6593 C   0  0  0  0  0  0  0  0  0  0  0  0
  136.3071  150.9999  143.1309 C   0  0  0  0  0  0  0  0  0  0  0  0
  138.5250  150.4950  142.6793 C   0  0  0  0  0  0  0  0  0  0  0  0
  135.2765  151.5053  144.1696 C   0  0  0  0  0  0  0  0  0  0  0  0
  137.6295  151.0010  143.5955 C   0  0  0  0  0  0  0  0  0  0  0  0
  137.6826  151.4814  144.5994 O   0  0  0  0  0  0  0  0  0  0  0  0
  1  2  2  0
  1  3  1  0
  2  4  1  0
  3  5  2  0
  5  6  1  0
  4  7  2  0
  5  7  1  0
  6  8  2  0
  3  9  1  0
  8 10  1  0
  8 11  1  0
  9 11  1  0
 11 12  2  0
M  END
$$$$

     RDKit          3D

 12 13  0  0  0  0  0  0  0  0999 V2000
  140.3024  150.2148  139.4796 Cl  0  0  0  0  0  0  0  0  0  0  0  0
  138.6763  150.1843  140.5310 C   0  0  0  0  0  0  0  0  0  0  0  0
  137.6367  149.3820  140.0914 C   0  0  0  0  0  0  0  0  0  0  0  0
  138.7708  150.9257  141.6508 C   0  0  0  0  0  0  0  0  0  0  0  0
  138.1273  150.9125  142.4396 C   0  0  0  0  0  0  0  0  0  0  0  0
  136.6299  149.5537  140.9779 C   0  0  0  0  0  0  0  0  0  0  0  0
  138.2522  151.5909  143.8342 C   0  0  0  0  0  0  0  0  0  0  0  0
  137.1959  151.8179  144.6447 C   0  0  0  0  0  0  0  0  0  0  0  0
  136.2204  151.3691  144.3876 C   0  0  0  0  0  0  0  0  0  0  0  0
  134.9690  151.6581  145.2590 C   0  0  0  0  0  0  0  0  0  0  0  0
  136.7428  150.2689  142.2150 C   0  0  0  0  0  0  0  0  0  0  0  0
  135.6236  150.5589  143.1687 C   0  0  0  0  0  0  0  0  0  0  0  0
  1  2  1  0
  2  3  1  0
  2  4  2  0
  4  5  1  0
  3  6  2  0
  5  7  1  0
  7  8  2  0
  8  9  1  0
  9 10  1  0
  5 11  2  0
  6 11  1  0
  9 12  2  0
 11 12  1  0
M  END
$$$$

     RDKit          3D

 12 13  0  0  0  0  0  0  0  0999 V2000
  139.5546  150.5076  140.4455 C   0  0  0  0  0  0  0  0  0  0  0  0
  139.2164  150.0146  139.3742 C   0  0  0  0  0  0  0  0  0  0  0  0
  138.8577  150.3073  141.5866 C   0  0  0  0  0  0  0  0  0  0  0  0
  139.2276  150.3508  142.8915 C   0  0  0  0  0  0  0  0  0  0  0  0
  138.3509  151.0011  143.9757 C   0  0  0  0  0  0  0  0  0  0  0  0
  137.0512  151.0931  143.5479 C   0  0  0  0  0  0  0  0  0  0  0  0
  136.6885  151.0862  142.4321 C   0  0  0  0  0  0  0  0  0  0  0  0
  137.8089  149.6165  139.2477 C   0  0  0  0  0  0  0  0  0  0  0  0
  136.9554  149.8011  140.4006 C   0  0  0  0  0  0  0  0  0  0  0  0
  137.3795  150.3678  141.5123 C   0  0  0  0  0  0  0  0  0  0  0  0
  136.2996  151.9200  144.7772 C   0  0  0  0  0  0  0  0  0  0  0  0
  136.7100  153.0903  145.3504 C   0  0  0  0  0  0  0  0  0  0  0  0
  1  2  2  0
  1  3  1  0
  3  4  1  0
  4  5  2  0
  5  6  1  0
  6  7  2  0
  2  8  1  0
  8  9  2  0
  3 10  2  0
  7 10  1  0
  9 10  1  0
  6 11  1  0
 11 12  2  0
M  END
$$$$

     RDKit          3D

 12 13  0  0  0  0  0  0  0  0999 V2000
  139.2620  151.0920  142.4042 C   0  0  0  0  0  0  0  0  0  0  0  0
  138.8619  152.1309  142.9034 C   0  0  0  0  0  0  0  0  0  0  0  0
  137.9125  151.7980  143.7817 C   0  0  0  0  0  0  0  0  0  0  0  0
  138.7623  149.7969  142.5199 C   0  0  0  0  0  0  0  0  0  0  0  0
  137.2982  152.8723  144.6403 C   0  0  0  0  0  0  0  0  0  0  0  0
  137.6744  149.7930  143.5190 C   0  0  0  0  0  0  0  0  0  0  0  0
  136.1051  152.5295  145.3396 C   0  0  0  0  0  0  0  0  0  0  0  0
  135.7260  151.1709  145.2062 C   0  0  0  0  0  0  0  0  0  0  0  0
  140.4850  151.1469  141.1831 C   0  0  0  0  0  0  0  0  0  0  0  0
  137.3613  150.6621  144.0842 C   0  0  0  0  0  0  0  0  0  0  0  0
  135.3937  153.6240  145.9599 C   0  0  0  0  0  0  0  0  0  0  0  0
  136.6498  150.2657  144.8905 C   0  0  0  0  0  0  0  0  0  0  0  0
  1  2  1  0
  2  3  2  0
  1  4  2  0
  3  5  1  0
  4  6  1  0
  5  7  2  0
  7  8  1  0
  1  9  1  0
  3 10  1  0
  6 10  2  0
  7 11  1  0
  8 12  2  0
 10 12  1  0
M  END
$$$$

     RDKit          3D

 12 13  0  0  0  0  0  0  0  0999 V2000
  139.3429  149.9930  140.5895 C   0  0  0  0  0  0  0  0  0  0  0  0
  138.9526  149.9228  139.3665 C   0  0  0  0  0  0  0  0  0  0  0  0
  138.6128  150.1151  141.6415 C   0  0  0  0  0  0  0  0  0  0  0  0
  137.5731  149.8751  139.0603 C   0  0  0  0  0  0  0  0  0  0  0  0
  136.7804  149.7030  140.1442 C   0  0  0  0  0  0  0  0  0  0  0  0
  139.1254  150.3586  143.0279 C   0  0  0  0  0  0  0  0  0  0  0  0
  138.2371  150.8994  144.0334 C   0  0  0  0  0  0  0  0  0  0  0  0
  137.1231  151.2869  143.6980 C   0  0  0  0  0  0  0  0  0  0  0  0
  136.5372  151.0085  142.4173 C   0  0  0  0  0  0  0  0  0  0  0  0
  135.4957  149.4539  139.9149 O   0  0  0  0  0  0  0  0  0  0  0  0
  137.2146  150.2601  141.4639 C   0  0  0  0  0  0  0  0  0  0  0  0
  136.1440  152.1524  144.8424 C   0  0  0  0  0  0  0  0  0  0  0  0
  1  2  2  0
  1  3  1  0
  2  4  1  0
  4  5  2  0
  3  6  1  0
  6  7  2  0
  7  8  1  0
  8  9  2  0
  5 10  1  0
  3 11  2  0
  5 11  1  0
  9 11  1  0
  8 12  1  0
M  END
$$$$

     RDKit          3D

 12 12  0  0  0  0  0  0  0  0999 V2000
  140.3024  150.2148  139.4796 Cl  0  0  0  0  0  0  0  0  0  0  0  0
  138.6763  150.1843  140.5310 C   0  0  0  0  0  0  0  0  0  0  0  0
  137.6367  149.3820  140.0914 C   0  0  0  0  0  0  0  0  0  0  0  0
  138.8646  150.7169  141.4514 C   0  0  0  0  0  0  0  0  0  0  0  0
  137.5305  148.8052  138.7934 C   0  0  0  0  0  0  0  0  0  0  0  0
  137.9001  150.8460  142.6225 C   0  0  0  0  0  0  0  0  0  0  0  0
  136.5033  149.4573  141.0392 C   0  0  0  0  0  0  0  0  0  0  0  0
  135.2577  149.0368  140.6689 C   0  0  0  0  0  0  0  0  0  0  0  0
  136.7794  150.1850  142.2772 C   0  0  0  0  0  0  0  0  0  0  0  0
  138.0344  151.5282  143.8372 C   0  0  0  0  0  0  0  0  0  0  0  0
  136.9668  151.7378  144.6322 C   0  0  0  0  0  0  0  0  0  0  0  0
  136.4978  150.8859  145.5610 C   0  0  0  0  0  0  0  0  0  0  0  0
  1  2  1  0
  2  3  2  0
  2  4  1  0
  3  5  1  0
  4  6  2  0
  3  7  1  0
  7  8  1  0
  6  9  1  0
  7  9  2  0
  6 10  1  0
 10 11  1  0
 11 12  2  0
M  END
$$$$

     RDKit          3D

 12 13  0  0  0  0  0  0  0  0999 V2000
  139.3429  149.9930  140.5895 C   0  0  0  0  0  0  0  0  0  0  0  0
  138.9526  149.9228  139.3665 C   0  0  0  0  0  0  0  0  0  0  0  0
  138.6128  150.1151  141.6415 C   0  0  0  0  0  0  0  0  0  0  0  0
  137.1849  149.8640  141.8304 C   0  0  0  0  0  0  0  0  0  0  0  0
  136.5144  149.7572  140.5779 C   0  0  0  0  0  0  0  0  0  0  0  0
  139.1889  150.4046  143.0744 C   0  0  0  0  0  0  0  0  0  0  0  0
  138.2456  150.9517  144.0738 C   0  0  0  0  0  0  0  0  0  0  0  0
  139.6584  149.8786  138.1597 C   0  0  0  0  0  0  0  0  0  0  0  0
  137.0523  149.6910  139.2208 C   0  0  0  0  0  0  0  0  0  0  0  0
  136.5812  150.3293  142.9806 N   0  0  0  0  0  0  0  0  0  0  0  0
  137.0073  150.7083  144.0419 C   0  0  0  0  0  0  0  0  0  0  0  0
  136.1512  151.0247  145.2601 C   0  0  0  0  0  0  0  0  0  0  0  0
  1  2  2  0
  1  3  1  0
  3  4  1  0
  4  5  2  0
  3  6  1  0
  6  7  2  0
  2  8  1  0
  2  9  1  0
  5  9  1  0
  4 10  1  0
  7 11  1  0
 10 11  2  0
 11 12  1  0
M  END
$$$$

     RDKit          3D

 12 13  0  0  0  0  0  0  0  0999 V2000
  139.3429  149.9930  140.5895 C   0  0  0  0  0  0  0  0  0  0  0  0
  138.9526  149.9228  139.3665 C   0  0  0  0  0  0  0  0  0  0  0  0
  138.6128  150.1151  141.6415 C   0  0  0  0  0  0  0  0  0  0  0  0
  137.1849  149.8640  141.8304 C   0  0  0  0  0  0  0  0  0  0  0  0
  136.5144  149.7572  140.5779 C   0  0  0  0  0  0  0  0  0  0  0  0
  139.1166  150.5253  143.0849 C   0  0  0  0  0  0  0  0  0  0  0  0
  138.1694  151.0130  144.0451 C   0  0  0  0  0  0  0  0  0  0  0  0
  137.2175  149.6795  139.2586 C   0  0  0  0  0  0  0  0  0  0  0  0
  136.6024  150.3475  142.9876 N   0  0  0  0  0  0  0  0  0  0  0  0
  136.9695  150.7293  144.0125 C   0  0  0  0  0  0  0  0  0  0  0  0
  136.1553  151.2113  145.0963 C   0  0  0  0  0  0  0  0  0  0  0  0
  136.0790  152.2737  145.4628 O   0  0  0  0  0  0  0  0  0  0  0  0
  1  2  2  0
  1  3  1  0
  3  4  1  0
  4  5  2  0
  3  6  1  0
  6  7  2  0
  2  8  1  0
  5  8  1  0
  4  9  1  0
  7 10  1  0
  9 10  2  0
 10 11  1  0
 11 12  2  0
M  END
$$$$

     RDKit          3D

 12 13  0  0  0  0  0  0  0  0999 V2000
  139.3429  149.9930  140.5895 C   0  0  0  0  0  0  0  0  0  0  0  0
  138.9526  149.9228  139.3665 C   0  0  0  0  0  0  0  0  0  0  0  0
  138.6128  150.1151  141.6415 C   0  0  0  0  0  0  0  0  0  0  0  0
  137.1849  149.8640  141.8304 C   0  0  0  0  0  0  0  0  0  0  0  0
  136.5144  149.7572  140.5779 C   0  0  0  0  0  0  0  0  0  0  0  0
  139.1166  150.5253  143.0849 C   0  0  0  0  0  0  0  0  0  0  0  0
  138.1694  151.0130  144.0451 C   0  0  0  0  0  0  0  0  0  0  0  0
  136.8764  150.9305  143.8065 C   0  0  0  0  0  0  0  0  0  0  0  0
  136.2844  150.2611  142.7998 C   0  0  0  0  0  0  0  0  0  0  0  0
  136.0227  151.6289  144.7126 C   0  0  0  0  0  0  0  0  0  0  0  0
  137.3987  149.6334  139.3025 C   0  0  0  0  0  0  0  0  0  0  0  0
  135.8494  152.7853  145.0053 C   0  0  0  0  0  0  0  0  0  0  0  0
  1  2  2  0
  1  3  1  0
  3  4  1  0
  4  5  2  0
  3  6  1  0
  6  7  2  0
  7  8  1  0
  4  9  1  0
  8  9  1  0
  8 10  1  0
  2 11  1  0
  5 11  1  0
 10 12  2  0
M  END
$$$$

     RDKit          3D

 12 12  0  0  0  0  0  0  0  0999 V2000
  139.5546  150.5076  140.4455 C   0  0  0  0  0  0  0  0  0  0  0  0
  139.2164  150.0146  139.3742 C   0  0  0  0  0  0  0  0  0  0  0  0
  138.8577  150.3073  141.5866 C   0  0  0  0  0  0  0  0  0  0  0  0
  137.9802  149.2985  139.2390 C   0  0  0  0  0  0  0  0  0  0  0  0
  137.2016  149.2056  140.2784 C   0  0  0  0  0  0  0  0  0  0  0  0
  135.7673  148.7987  140.2461 C   0  0  0  0  0  0  0  0  0  0  0  0
  139.4101  150.8793  142.9241 C   0  0  0  0  0  0  0  0  0  0  0  0
  138.3780  151.0479  144.0095 C   0  0  0  0  0  0  0  0  0  0  0  0
  137.1920  151.0047  143.6833 C   0  0  0  0  0  0  0  0  0  0  0  0
  136.2389  151.5051  144.7137 C   0  0  0  0  0  0  0  0  0  0  0  0
  137.5207  149.8526  141.4561 C   0  0  0  0  0  0  0  0  0  0  0  0
  136.4846  151.9206  145.8661 O   0  0  0  0  0  0  0  0  0  0  0  0
  1  2  2  0
  1  3  1  0
  2  4  1  0
  4  5  2  0
  5  6  1  0
  3  7  1  0
  7  8  2  3
  8  9  1  0
  9 10  1  0
  3 11  2  0
  5 11  1  0
 10 12  1  0
M  END
$$$$

     RDKit          3D

 12 13  0  0  0  0  0  0  0  0999 V2000
  140.3024  150.2148  139.4796 Cl  0  0  0  0  0  0  0  0  0  0  0  0
  138.6763  150.1843  140.5310 C   0  0  0  0  0  0  0  0  0  0  0  0
  137.6367  149.3820  140.0914 C   0  0  0  0  0  0  0  0  0  0  0  0
  139.0296  150.8810  141.6190 C   0  0  0  0  0  0  0  0  0  0  0  0
  136.6556  149.6404  140.8181 C   0  0  0  0  0  0  0  0  0  0  0  0
  136.6486  150.4486  141.8740 C   0  0  0  0  0  0  0  0  0  0  0  0
  135.4283  150.7331  142.7845 C   0  0  0  0  0  0  0  0  0  0  0  0
  137.8050  151.0306  142.4471 C   0  0  0  0  0  0  0  0  0  0  0  0
  135.6546  150.8747  144.1281 C   0  0  0  0  0  0  0  0  0  0  0  0
  136.5585  151.5502  144.7332 C   0  0  0  0  0  0  0  0  0  0  0  0
  138.0414  151.7381  143.7591 C   0  0  0  0  0  0  0  0  0  0  0  0
  136.9124  152.0454  145.9375 O   0  0  0  0  0  0  0  0  0  0  0  0
  1  2  1  0
  2  3  2  0
  2  4  1  0
  3  5  1  0
  5  6  2  0
  6  7  1  0
  4  8  2  0
  6  8  1  0
  7  9  2  0
  9 10  1  0
  8 11  1  0
 10 11  1  0
 10 12  1  0
M  END
$$$$

     RDKit          3D

 12 13  0  0  0  0  0  0  0  0999 V2000
  139.3946  150.7519  142.0139 C   0  0  0  0  0  0  0  0  0  0  0  0
  139.0647  150.4900  140.7537 C   0  0  0  0  0  0  0  0  0  0  0  0
  138.4477  150.6373  143.0427 C   0  0  0  0  0  0  0  0  0  0  0  0
  137.8331  149.9847  140.4384 C   0  0  0  0  0  0  0  0  0  0  0  0
  136.8990  149.7655  141.3322 C   0  0  0  0  0  0  0  0  0  0  0  0
  138.7710  151.0481  144.4226 C   0  0  0  0  0  0  0  0  0  0  0  0
  137.5960  151.6420  145.1154 C   0  0  0  0  0  0  0  0  0  0  0  0
  135.4679  149.4838  140.9159 C   0  0  0  0  0  0  0  0  0  0  0  0
  136.4963  151.6340  144.5181 C   0  0  0  0  0  0  0  0  0  0  0  0
  136.1301  151.2219  143.4596 C   0  0  0  0  0  0  0  0  0  0  0  0
  137.1043  150.5189  142.6515 C   0  0  0  0  0  0  0  0  0  0  0  0
  135.0796  152.5332  145.5337 Cl  0  0  0  0  0  0  0  0  0  0  0  0
  1  2  2  0
  1  3  1  0
  2  4  1  0
  4  5  2  0
  3  6  1  0
  6  7  2  0
  5  8  1  0
  7  9  1  0
  9 10  2  0
  3 11  2  0
  5 11  1  0
 10 11  1  0
  9 12  1  0
M  END
$$$$

     RDKit          3D

 12 13  0  0  0  0  0  0  0  0999 V2000
  139.5345  150.8917  142.2314 C   0  0  0  0  0  0  0  0  0  0  0  0
  138.9995  151.9980  142.6394 C   0  0  0  0  0  0  0  0  0  0  0  0
  138.9541  149.6529  142.4257 C   0  0  0  0  0  0  0  0  0  0  0  0
  137.7537  151.8935  143.4337 C   0  0  0  0  0  0  0  0  0  0  0  0
  137.3038  153.0170  144.1125 C   0  0  0  0  0  0  0  0  0  0  0  0
  136.3818  152.7500  145.0844 C   0  0  0  0  0  0  0  0  0  0  0  0
  136.0521  151.4317  145.3456 C   0  0  0  0  0  0  0  0  0  0  0  0
  137.3705  150.5238  143.7866 C   0  0  0  0  0  0  0  0  0  0  0  0
  135.7150  153.9421  145.7689 C   0  0  0  0  0  0  0  0  0  0  0  0
  137.9581  149.5787  143.3070 C   0  0  0  0  0  0  0  0  0  0  0  0
  135.1152  151.3690  146.5133 C   0  0  0  0  0  0  0  0  0  0  0  0
  136.3251  150.4418  144.7052 C   0  0  0  0  0  0  0  0  0  0  0  0
  1  2  2  0
  1  3  1  0
  2  4  1  0
  4  5  1  0
  5  6  2  0
  6  7  1  0
  4  8  2  0
  6  9  1  0
  3 10  2  0
  8 10  1  0
  7 11  1  0
  7 12  2  0
  8 12  1  0
M  END
$$$$

     RDKit          3D

 12 13  0  0  0  0  0  0  0  0999 V2000
  139.2620  151.0920  142.4042 C   0  0  0  0  0  0  0  0  0  0  0  0
  138.8619  152.1309  142.9034 C   0  0  0  0  0  0  0  0  0  0  0  0
  137.9125  151.7980  143.7817 C   0  0  0  0  0  0  0  0  0  0  0  0
  138.8290  150.4014  141.6007 C   0  0  0  0  0  0  0  0  0  0  0  0
  137.6686  149.9547  141.7571 C   0  0  0  0  0  0  0  0  0  0  0  0
  137.5096  152.5999  144.9582 C   0  0  0  0  0  0  0  0  0  0  0  0
  136.8118  150.7640  143.7827 C   0  0  0  0  0  0  0  0  0  0  0  0
  135.9232  150.7938  144.8969 C   0  0  0  0  0  0  0  0  0  0  0  0
  136.0019  151.8141  145.6610 C   0  0  0  0  0  0  0  0  0  0  0  0
  136.8505  149.5894  140.6103 C   0  0  0  0  0  0  0  0  0  0  0  0
  136.7475  149.9955  142.7453 N   0  0  0  0  0  0  0  0  0  0  0  0
  136.7547  152.7036  145.6837 C   0  0  0  0  0  0  0  0  0  0  0  0
  1  2  1  0
  2  3  2  0
  1  4  2  0
  4  5  1  0
  3  6  1  0
  3  7  1  0
  7  8  2  0
  8  9  1  0
  5 10  1  0
  5 11  2  0
  7 11  1  0
  6 12  2  0
  9 12  2  0
M  END
$$$$

     RDKit          3D

 12 13  0  0  0  0  0  0  0  0999 V2000
  139.0001  149.7643  140.3654 C   0  0  0  0  0  0  0  0  0  0  0  0
  138.7141  149.5451  139.1252 C   0  0  0  0  0  0  0  0  0  0  0  0
  138.1592  150.0995  141.2821 C   0  0  0  0  0  0  0  0  0  0  0  0
  137.3238  149.5788  138.6759 C   0  0  0  0  0  0  0  0  0  0  0  0
  136.7102  150.0158  141.0157 C   0  0  0  0  0  0  0  0  0  0  0  0
  135.7301  150.2148  142.0235 C   0  0  0  0  0  0  0  0  0  0  0  0
  136.2830  149.7058  139.6593 C   0  0  0  0  0  0  0  0  0  0  0  0
  136.3071  150.9999  143.1309 C   0  0  0  0  0  0  0  0  0  0  0  0
  138.5250  150.4950  142.6793 C   0  0  0  0  0  0  0  0  0  0  0  0
  135.2765  151.5053  144.1696 C   0  0  0  0  0  0  0  0  0  0  0  0
  137.6295  151.0010  143.5955 C   0  0  0  0  0  0  0  0  0  0  0  0
  138.2290  151.4408  144.7458 C   0  0  0  0  0  0  0  0  0  0  0  0
  1  2  2  0
  1  3  1  0
  2  4  1  0
  3  5  2  0
  5  6  1  0
  4  7  2  0
  5  7  1  0
  6  8  2  0
  3  9  1  0
  8 10  1  0
  8 11  1  0
  9 11  1  0
 11 12  2  0
M  END
$$$$

     RDKit          3D

 12 13  0  0  0  0  0  0  0  0999 V2000
  138.7250  151.5761  143.3186 C   0  0  0  0  0  0  0  0  0  0  0  0
  137.9190  152.3260  143.7534 C   0  0  0  0  0  0  0  0  0  0  0  0
  136.7518  151.8065  144.4377 C   0  0  0  0  0  0  0  0  0  0  0  0
  136.7830  150.4602  144.6806 C   0  0  0  0  0  0  0  0  0  0  0  0
  135.7179  152.5049  144.9771 C   0  0  0  0  0  0  0  0  0  0  0  0
  138.4939  150.1675  143.2310 C   0  0  0  0  0  0  0  0  0  0  0  0
  135.6409  153.7419  145.2249 C   0  0  0  0  0  0  0  0  0  0  0  0
  135.8837  149.9059  145.6561 C   0  0  0  0  0  0  0  0  0  0  0  0
  134.5888  151.7027  145.4164 C   0  0  0  0  0  0  0  0  0  0  0  0
  137.6709  149.6353  144.0919 C   0  0  0  0  0  0  0  0  0  0  0  0
  136.3275  148.8689  146.4411 O   0  0  0  0  0  0  0  0  0  0  0  0
  134.6532  150.4477  145.9360 C   0  0  0  0  0  0  0  0  0  0  0  0
  1  2  1  0
  2  3  2  0
  3  4  1  0
  3  5  1  0
  1  6  2  0
  5  7  1  0
  4  8  1  0
  5  9  2  0
  4 10  2  0
  6 10  1  0
  8 11  1  0
  8 12  2  0
  9 12  1  0
M  END
$$$$

     RDKit          3D

 12 13  0  0  0  0  0  0  0  0999 V2000
  139.3429  149.9930  140.5895 C   0  0  0  0  0  0  0  0  0  0  0  0
  138.9526  149.9228  139.3665 C   0  0  0  0  0  0  0  0  0  0  0  0
  138.6128  150.1151  141.6415 C   0  0  0  0  0  0  0  0  0  0  0  0
  137.1849  149.8640  141.8304 C   0  0  0  0  0  0  0  0  0  0  0  0
  136.5144  149.7572  140.5779 C   0  0  0  0  0  0  0  0  0  0  0  0
  139.1166  150.5253  143.0849 C   0  0  0  0  0  0  0  0  0  0  0  0
  138.1694  151.0130  144.0451 C   0  0  0  0  0  0  0  0  0  0  0  0
  136.8764  150.9305  143.8065 C   0  0  0  0  0  0  0  0  0  0  0  0
  136.2855  150.2865  142.8108 C   0  0  0  0  0  0  0  0  0  0  0  0
  136.0975  151.4408  144.9510 C   0  0  0  0  0  0  0  0  0  0  0  0
  137.3611  149.6443  139.2949 C   0  0  0  0  0  0  0  0  0  0  0  0
  135.3572  152.6926  144.8584 C   0  0  0  0  0  0  0  0  0  0  0  0
  1  2  2  0
  1  3  1  0
  3  4  1  0
  4  5  2  0
  3  6  1  0
  6  7  2  0
  7  8  1  0
  4  9  1  0
  8  9  1  0
  8 10  1  0
  2 11  1  0
  5 11  1  0
 10 12  1  0
M  END
$$$$

     RDKit          3D

 12 13  0  0  0  0  0  0  0  0999 V2000
  140.3024  150.2148  139.4796 Cl  0  0  0  0  0  0  0  0  0  0  0  0
  138.6763  150.1843  140.5310 C   0  0  0  0  0  0  0  0  0  0  0  0
  137.6367  149.3820  140.0914 C   0  0  0  0  0  0  0  0  0  0  0  0
  138.7469  150.9460  141.6721 C   0  0  0  0  0  0  0  0  0  0  0  0
  137.7520  150.8717  142.6252 C   0  0  0  0  0  0  0  0  0  0  0  0
  136.6300  150.0366  142.2586 C   0  0  0  0  0  0  0  0  0  0  0  0
  137.9571  151.6486  143.9853 C   0  0  0  0  0  0  0  0  0  0  0  0
  137.5450  148.8206  138.9054 C   0  0  0  0  0  0  0  0  0  0  0  0
  135.5114  150.2590  143.2608 C   0  0  0  0  0  0  0  0  0  0  0  0
  136.4351  149.4796  141.0186 C   0  0  0  0  0  0  0  0  0  0  0  0
  135.9122  151.0668  144.4135 C   0  0  0  0  0  0  0  0  0  0  0  0
  137.1086  151.5956  144.6654 C   0  0  0  0  0  0  0  0  0  0  0  0
  1  2  1  0
  2  3  2  0
  2  4  1  0
  4  5  2  0
  5  6  1  0
  5  7  1  0
  3  8  1  0
  6  9  1  0
  3 10  1  0
  6 10  2  0
  9 11  2  0
  7 12  2  0
 11 12  1  0
M  END
$$$$

     RDKit          3D

 12 13  0  0  0  0  0  0  0  0999 V2000
  139.2620  151.0920  142.4042 C   0  0  0  0  0  0  0  0  0  0  0  0
  138.8619  152.1309  142.9034 C   0  0  0  0  0  0  0  0  0  0  0  0
  137.7834  151.8925  143.8932 C   0  0  0  0  0  0  0  0  0  0  0  0
  137.3598  150.5409  144.0625 C   0  0  0  0  0  0  0  0  0  0  0  0
  136.3243  150.4647  145.1225 C   0  0  0  0  0  0  0  0  0  0  0  0
  139.2661  149.7548  142.8054 C   0  0  0  0  0  0  0  0  0  0  0  0
  139.9761  151.1310  141.1435 C   0  0  0  0  0  0  0  0  0  0  0  0
  138.0988  149.6117  143.7213 C   0  0  0  0  0  0  0  0  0  0  0  0
  139.8646  150.2796  140.0534 C   0  0  0  0  0  0  0  0  0  0  0  0
  135.7453  151.6036  145.3722 C   0  0  0  0  0  0  0  0  0  0  0  0
  135.7681  152.7250  144.8456 C   0  0  0  0  0  0  0  0  0  0  0  0
  136.9649  153.0601  144.3083 C   0  0  0  0  0  0  0  0  0  0  0  0
  1  2  1  0
  2  3  2  0
  3  4  1  0
  4  5  2  0
  1  6  1  0
  1  7  2  3
  4  8  1  0
  6  8  2  0
  7  9  1  0
  5 10  1  0
 10 11  2  0
  3 12  1  0
 11 12  1  0
M  END
$$$$

     RDKit          3D

 12 13  0  0  0  0  0  0  0  0999 V2000
  139.5546  150.5076  140.4455 C   0  0  0  0  0  0  0  0  0  0  0  0
  139.2164  150.0146  139.3742 C   0  0  0  0  0  0  0  0  0  0  0  0
  138.8577  150.3073  141.5866 C   0  0  0  0  0  0  0  0  0  0  0  0
  137.9802  149.2985  139.2390 C   0  0  0  0  0  0  0  0  0  0  0  0
  139.3336  150.9318  142.8840 C   0  0  0  0  0  0  0  0  0  0  0  0
  138.3135  151.4959  143.6105 C   0  0  0  0  0  0  0  0  0  0  0  0
  137.0050  151.1284  143.2688 C   0  0  0  0  0  0  0  0  0  0  0  0
  136.0278  151.6441  144.2809 C   0  0  0  0  0  0  0  0  0  0  0  0
  137.1010  149.3447  140.4158 C   0  0  0  0  0  0  0  0  0  0  0  0
  137.5706  149.9393  141.5778 C   0  0  0  0  0  0  0  0  0  0  0  0
  136.6185  150.2440  142.5293 N   0  0  0  0  0  0  0  0  0  0  0  0
  136.2475  152.1614  145.2970 O   0  0  0  0  0  0  0  0  0  0  0  0
  1  2  2  0
  1  3  1  0
  2  4  1  0
  3  5  1  0
  5  6  2  0
  6  7  1  0
  7  8  1  0
  4  9  2  0
  3 10  2  0
  9 10  1  0
  7 11  2  0
 10 11  1  0
  8 12  2  0
M  END
$$$$

     RDKit          3D

 12 13  0  0  0  0  0  0  0  0999 V2000
  138.7091  151.1474  142.6274 C   0  0  0  0  0  0  0  0  0  0  0  0
  138.5250  151.9378  143.5111 C   0  0  0  0  0  0  0  0  0  0  0  0
  137.3808  151.6590  144.3960 C   0  0  0  0  0  0  0  0  0  0  0  0
  139.6671  150.9842  141.6902 C   0  0  0  0  0  0  0  0  0  0  0  0
  136.7223  150.4781  143.9637 C   0  0  0  0  0  0  0  0  0  0  0  0
  137.6952  150.0834  142.3787 C   0  0  0  0  0  0  0  0  0  0  0  0
  138.0473  149.3792  141.0795 C   0  0  0  0  0  0  0  0  0  0  0  0
  139.4970  150.3391  140.5091 C   0  0  0  0  0  0  0  0  0  0  0  0
  136.6625  149.7122  143.0632 C   0  0  0  0  0  0  0  0  0  0  0  0
  139.9262  150.2183  139.3945 C   0  0  0  0  0  0  0  0  0  0  0  0
  139.8924  149.3004  138.4043 C   0  0  0  0  0  0  0  0  0  0  0  0
  137.1472  152.6308  145.6483 Cl  0  0  0  0  0  0  0  0  0  0  0  0
  1  2  1  0
  2  3  2  0
  1  4  1  0
  3  5  1  0
  1  6  2  0
  6  7  1  0
  4  8  1  0
  7  8  1  0
  5  9  2  0
  6  9  1  0
  8 10  2  3
 10 11  1  0
  3 12  1  0
M  END
$$$$

     RDKit          3D

 12 13  0  0  0  0  0  0  0  0999 V2000
  138.7091  151.1474  142.6274 C   0  0  0  0  0  0  0  0  0  0  0  0
  138.5250  151.9378  143.5111 C   0  0  0  0  0  0  0  0  0  0  0  0
  137.3909  151.8085  144.0743 C   0  0  0  0  0  0  0  0  0  0  0  0
  136.5966  150.6180  143.9743 C   0  0  0  0  0  0  0  0  0  0  0  0
  137.9826  149.9619  142.2566 C   0  0  0  0  0  0  0  0  0  0  0  0
  136.5070  152.7496  145.0872 C   0  0  0  0  0  0  0  0  0  0  0  0
  135.4505  152.3051  145.6994 C   0  0  0  0  0  0  0  0  0  0  0  0
  135.4654  150.4685  144.8143 C   0  0  0  0  0  0  0  0  0  0  0  0
  134.7549  151.2175  145.5929 C   0  0  0  0  0  0  0  0  0  0  0  0
  137.0621  149.7855  142.9941 C   0  0  0  0  0  0  0  0  0  0  0  0
  140.0457  151.3656  141.7267 C   0  0  0  0  0  0  0  0  0  0  0  0
  134.8984  153.5481  146.5039 C   0  0  0  0  0  0  0  0  0  0  0  0
  1  2  1  0
  2  3  2  0
  3  4  1  0
  1  5  2  0
  3  6  1  0
  6  7  1  0
  4  8  1  0
  7  9  1  0
  8  9  2  0
  4 10  2  0
  5 10  1  0
  1 11  1  0
  7 12  2  0
M  END
$$$$

     RDKit          3D

 12 13  0  0  0  0  0  0  0  0999 V2000
  139.3429  149.9930  140.5895 C   0  0  0  0  0  0  0  0  0  0  0  0
  138.9526  149.9228  139.3665 C   0  0  0  0  0  0  0  0  0  0  0  0
  138.6128  150.1151  141.6415 C   0  0  0  0  0  0  0  0  0  0  0  0
  137.1849  149.8640  141.8304 C   0  0  0  0  0  0  0  0  0  0  0  0
  136.5144  149.7572  140.5779 C   0  0  0  0  0  0  0  0  0  0  0  0
  139.1166  150.5253  143.0849 C   0  0  0  0  0  0  0  0  0  0  0  0
  138.2341  151.1490  143.8701 C   0  0  0  0  0  0  0  0  0  0  0  0
  136.9087  150.9585  143.7785 C   0  0  0  0  0  0  0  0  0  0  0  0
  136.3090  150.2516  142.8052 C   0  0  0  0  0  0  0  0  0  0  0  0
  136.1259  151.5185  144.9654 C   0  0  0  0  0  0  0  0  0  0  0  0
  137.4448  149.6404  139.2463 C   0  0  0  0  0  0  0  0  0  0  0  0
  135.3075  152.4556  144.8998 C   0  0  0  0  0  0  0  0  0  0  0  0
  1  2  2  0
  1  3  1  0
  3  4  1  0
  4  5  2  0
  3  6  1  0
  6  7  2  0
  7  8  1  0
  4  9  1  0
  8  9  2  0
  8 10  1  0
  2 11  1  0
  5 11  1  0
 10 12  1  0
M  END
$$$$

     RDKit          3D

 12 13  0  0  0  0  0  0  0  0999 V2000
  138.7091  151.1474  142.6274 C   0  0  0  0  0  0  0  0  0  0  0  0
  138.5250  151.9378  143.5111 C   0  0  0  0  0  0  0  0  0  0  0  0
  137.3909  151.8085  144.0743 C   0  0  0  0  0  0  0  0  0  0  0  0
  136.5966  150.6180  143.9743 C   0  0  0  0  0  0  0  0  0  0  0  0
  137.9826  149.9619  142.2566 C   0  0  0  0  0  0  0  0  0  0  0  0
  136.5070  152.7496  145.0872 C   0  0  0  0  0  0  0  0  0  0  0  0
  135.4505  152.3051  145.6994 C   0  0  0  0  0  0  0  0  0  0  0  0
  135.4654  150.4685  144.8143 C   0  0  0  0  0  0  0  0  0  0  0  0
  134.7549  151.2175  145.5929 C   0  0  0  0  0  0  0  0  0  0  0  0
  137.0621  149.7855  142.9941 C   0  0  0  0  0  0  0  0  0  0  0  0
  134.9056  153.5469  146.5046 C   0  0  0  0  0  0  0  0  0  0  0  0
  140.0418  151.3561  141.7203 C   0  0  0  0  0  0  0  0  0  0  0  0
  1  2  1  0
  2  3  2  0
  3  4  1  0
  1  5  2  0
  3  6  1  0
  6  7  1  0
  4  8  1  0
  7  9  1  0
  8  9  2  0
  4 10  2  0
  5 10  1  0
  7 11  1  0
  1 12  1  0
M  END
$$$$

     RDKit          3D

 12 13  0  0  0  0  0  0  0  0999 V2000
  140.3024  150.2148  139.4796 Cl  0  0  0  0  0  0  0  0  0  0  0  0
  138.6763  150.1843  140.5310 C   0  0  0  0  0  0  0  0  0  0  0  0
  137.6367  149.3820  140.0914 C   0  0  0  0  0  0  0  0  0  0  0  0
  138.7708  150.9257  141.6508 C   0  0  0  0  0  0  0  0  0  0  0  0
  138.1273  150.9125  142.4396 C   0  0  0  0  0  0  0  0  0  0  0  0
  136.6299  149.5537  140.9779 C   0  0  0  0  0  0  0  0  0  0  0  0
  138.2522  151.5909  143.8342 C   0  0  0  0  0  0  0  0  0  0  0  0
  137.1959  151.8179  144.6447 C   0  0  0  0  0  0  0  0  0  0  0  0
  136.2204  151.3691  144.3876 C   0  0  0  0  0  0  0  0  0  0  0  0
  134.9690  151.6581  145.2590 C   0  0  0  0  0  0  0  0  0  0  0  0
  136.7408  150.2573  142.2329 C   0  0  0  0  0  0  0  0  0  0  0  0
  135.6662  150.6033  143.1775 N   0  0  0  0  0  0  0  0  0  0  0  0
  1  2  1  0
  2  3  1  0
  2  4  2  0
  4  5  1  0
  3  6  2  0
  5  7  1  0
  7  8  2  0
  8  9  1  0
  9 10  1  0
  5 11  2  0
  6 11  1  0
  9 12  2  0
 11 12  1  0
M  END
$$$$

     RDKit          3D

 12 13  0  0  0  0  0  0  0  0999 V2000
  139.2620  151.0920  142.4042 C   0  0  0  0  0  0  0  0  0  0  0  0
  138.8619  152.1309  142.9034 C   0  0  0  0  0  0  0  0  0  0  0  0
  137.9125  151.7980  143.7817 C   0  0  0  0  0  0  0  0  0  0  0  0
  138.8290  150.4014  141.6007 C   0  0  0  0  0  0  0  0  0  0  0  0
  137.6686  149.9547  141.7571 C   0  0  0  0  0  0  0  0  0  0  0  0
  137.5096  152.5999  144.9582 C   0  0  0  0  0  0  0  0  0  0  0  0
  136.8385  149.3585  140.7413 C   0  0  0  0  0  0  0  0  0  0  0  0
  136.8746  150.7394  143.7502 C   0  0  0  0  0  0  0  0  0  0  0  0
  136.7386  150.1407  142.8247 C   0  0  0  0  0  0  0  0  0  0  0  0
  136.3070  152.9829  145.1740 C   0  0  0  0  0  0  0  0  0  0  0  0
  135.2538  152.0522  145.2547 C   0  0  0  0  0  0  0  0  0  0  0  0
  135.8909  150.9756  144.7715 C   0  0  0  0  0  0  0  0  0  0  0  0
  1  2  1  0
  2  3  2  0
  1  4  2  0
  4  5  1  0
  3  6  1  0
  5  7  1  0
  3  8  1  0
  5  9  2  0
  8  9  1  0
  6 10  2  0
 10 11  1  0
  8 12  2  0
 11 12  2  0
M  END
$$$$

     RDKit          3D

 12 13  0  0  0  0  0  0  0  0999 V2000
  139.3429  149.9930  140.5895 C   0  0  0  0  0  0  0  0  0  0  0  0
  138.9526  149.9228  139.3665 C   0  0  0  0  0  0  0  0  0  0  0  0
  138.6128  150.1151  141.6415 C   0  0  0  0  0  0  0  0  0  0  0  0
  137.1849  149.8640  141.8304 C   0  0  0  0  0  0  0  0  0  0  0  0
  136.5144  149.7572  140.5779 C   0  0  0  0  0  0  0  0  0  0  0  0
  139.1166  150.5253  143.0849 C   0  0  0  0  0  0  0  0  0  0  0  0
  138.1694  151.0130  144.0451 C   0  0  0  0  0  0  0  0  0  0  0  0
  136.8764  150.9305  143.8065 C   0  0  0  0  0  0  0  0  0  0  0  0
  136.2844  150.2611  142.7998 C   0  0  0  0  0  0  0  0  0  0  0  0
  135.2427  149.4737  140.4073 C   0  0  0  0  0  0  0  0  0  0  0  0
  137.1297  149.5673  139.2336 C   0  0  0  0  0  0  0  0  0  0  0  0
  136.5126  151.3916  145.2185 C   0  0  0  0  0  0  0  0  0  0  0  0
  1  2  2  0
  1  3  1  0
  3  4  1  0
  4  5  2  0
  3  6  1  0
  6  7  2  0
  7  8  1  0
  4  9  1  0
  8  9  1  0
  5 10  1  0
  2 11  1  0
  5 11  1  0
  8 12  1  0
M  END
$$$$

     RDKit          3D

 12 12  0  0  0  0  0  0  0  0999 V2000
  140.3024  150.2148  139.4796 Cl  0  0  0  0  0  0  0  0  0  0  0  0
  138.6763  150.1843  140.5310 C   0  0  0  0  0  0  0  0  0  0  0  0
  137.6367  149.3820  140.0914 C   0  0  0  0  0  0  0  0  0  0  0  0
  138.7469  150.9460  141.6721 C   0  0  0  0  0  0  0  0  0  0  0  0
  136.5600  149.6018  140.7937 C   0  0  0  0  0  0  0  0  0  0  0  0
  137.6794  151.0376  142.4893 C   0  0  0  0  0  0  0  0  0  0  0  0
  135.2447  149.0952  140.3661 C   0  0  0  0  0  0  0  0  0  0  0  0
  136.5242  150.3975  142.0138 C   0  0  0  0  0  0  0  0  0  0  0  0
  137.6911  151.8262  143.7286 C   0  0  0  0  0  0  0  0  0  0  0  0
  136.6547  151.6015  144.6490 C   0  0  0  0  0  0  0  0  0  0  0  0
  136.4460  150.5555  145.2274 C   0  0  0  0  0  0  0  0  0  0  0  0
  135.8416  152.7105  145.1297 C   0  0  0  0  0  0  0  0  0  0  0  0
  1  2  1  0
  2  3  2  0
  2  4  1  0
  3  5  1  0
  4  6  2  0
  5  7  1  0
  5  8  2  0
  6  8  1  0
  6  9  1  0
  9 10  1  0
 10 11  2  0
 10 12  1  0
M  END
$$$$

     RDKit          3D

 12 13  0  0  0  0  0  0  0  0999 V2000
  138.7091  151.1474  142.6274 C   0  0  0  0  0  0  0  0  0  0  0  0
  138.5250  151.9378  143.5111 C   0  0  0  0  0  0  0  0  0  0  0  0
  137.3808  151.6590  144.3960 C   0  0  0  0  0  0  0  0  0  0  0  0
  139.6671  150.9842  141.6902 C   0  0  0  0  0  0  0  0  0  0  0  0
  136.7223  150.4781  143.9637 C   0  0  0  0  0  0  0  0  0  0  0  0
  137.7855  150.1127  142.3490 C   0  0  0  0  0  0  0  0  0  0  0  0
  138.1041  149.3710  141.0881 C   0  0  0  0  0  0  0  0  0  0  0  0
  139.5481  150.3760  140.5135 C   0  0  0  0  0  0  0  0  0  0  0  0
  138.8051  149.5516  140.2255 C   0  0  0  0  0  0  0  0  0  0  0  0
  136.7904  149.7469  143.0468 C   0  0  0  0  0  0  0  0  0  0  0  0
  140.8196  150.7281  139.5500 C   0  0  0  0  0  0  0  0  0  0  0  0
  137.1994  152.5840  145.4831 O   0  0  0  0  0  0  0  0  0  0  0  0
  1  2  1  0
  2  3  2  0
  1  4  1  0
  3  5  1  0
  1  6  2  0
  6  7  1  0
  4  8  2  0
  7  9  2  0
  8  9  1  0
  5 10  2  0
  6 10  1  0
  8 11  1  0
  3 12  1  0
M  END
$$$$

     RDKit          3D

 12 13  0  0  0  0  0  0  0  0999 V2000
  139.3429  149.9930  140.5895 C   0  0  0  0  0  0  0  0  0  0  0  0
  138.9526  149.9228  139.3665 C   0  0  0  0  0  0  0  0  0  0  0  0
  138.6128  150.1151  141.6415 C   0  0  0  0  0  0  0  0  0  0  0  0
  137.1849  149.8640  141.8304 C   0  0  0  0  0  0  0  0  0  0  0  0
  136.5144  149.7572  140.5779 C   0  0  0  0  0  0  0  0  0  0  0  0
  139.1166  150.5253  143.0849 C   0  0  0  0  0  0  0  0  0  0  0  0
  138.1694  151.0130  144.0451 C   0  0  0  0  0  0  0  0  0  0  0  0
  136.8764  150.9305  143.8065 C   0  0  0  0  0  0  0  0  0  0  0  0
  136.2844  150.2611  142.7998 C   0  0  0  0  0  0  0  0  0  0  0  0
  135.2427  149.4737  140.4073 C   0  0  0  0  0  0  0  0  0  0  0  0
  137.1297  149.5673  139.2336 C   0  0  0  0  0  0  0  0  0  0  0  0
  135.9937  151.6175  144.6683 O   0  0  0  0  0  0  0  0  0  0  0  0
  1  2  2  0
  1  3  1  0
  3  4  1  0
  4  5  2  0
  3  6  1  0
  6  7  2  0
  7  8  1  0
  4  9  1  0
  8  9  1  0
  5 10  1  0
  2 11  1  0
  5 11  1  0
  8 12  2  0
M  END
$$$$

     RDKit          3D

 12 13  0  0  0  0  0  0  0  0999 V2000
  138.7091  151.1474  142.6274 C   0  0  0  0  0  0  0  0  0  0  0  0
  138.5250  151.9378  143.5111 C   0  0  0  0  0  0  0  0  0  0  0  0
  137.3808  151.6590  144.3960 C   0  0  0  0  0  0  0  0  0  0  0  0
  139.6671  150.9842  141.6902 C   0  0  0  0  0  0  0  0  0  0  0  0
  136.7223  150.4781  143.9637 C   0  0  0  0  0  0  0  0  0  0  0  0
  137.7855  150.1127  142.3490 C   0  0  0  0  0  0  0  0  0  0  0  0
  138.1041  149.3710  141.0881 C   0  0  0  0  0  0  0  0  0  0  0  0
  137.2573  148.9419  140.1763 C   0  0  0  0  0  0  0  0  0  0  0  0
  136.7739  149.7552  143.0386 C   0  0  0  0  0  0  0  0  0  0  0  0
  139.4792  150.0700  140.6578 C   0  0  0  0  0  0  0  0  0  0  0  0
  140.1524  149.7626  139.6157 O   0  0  0  0  0  0  0  0  0  0  0  0
  137.1984  152.5396  145.5089 O   0  0  0  0  0  0  0  0  0  0  0  0
  1  2  1  0
  2  3  2  0
  1  4  1  0
  3  5  1  0
  1  6  2  0
  6  7  1  0
  7  8  1  0
  5  9  2  0
  6  9  1  0
  4 10  1  0
  7 10  1  0
 10 11  2  0
  3 12  1  0
M  END
$$$$

     RDKit          3D

 12 13  0  0  0  0  0  0  0  0999 V2000
  139.2620  151.0920  142.4042 C   0  0  0  0  0  0  0  0  0  0  0  0
  138.8619  152.1309  142.9034 C   0  0  0  0  0  0  0  0  0  0  0  0
  137.9125  151.7980  143.7817 C   0  0  0  0  0  0  0  0  0  0  0  0
  138.8290  150.4014  141.6007 C   0  0  0  0  0  0  0  0  0  0  0  0
  137.6686  149.9547  141.7571 C   0  0  0  0  0  0  0  0  0  0  0  0
  137.5096  152.5999  144.9582 C   0  0  0  0  0  0  0  0  0  0  0  0
  136.8385  149.3585  140.7413 C   0  0  0  0  0  0  0  0  0  0  0  0
  136.8746  150.7394  143.7502 C   0  0  0  0  0  0  0  0  0  0  0  0
  136.7386  150.1407  142.8247 C   0  0  0  0  0  0  0  0  0  0  0  0
  136.3070  152.9829  145.1740 C   0  0  0  0  0  0  0  0  0  0  0  0
  135.2538  152.0522  145.2547 C   0  0  0  0  0  0  0  0  0  0  0  0
  135.8508  150.8943  144.7895 C   0  0  0  0  0  0  0  0  0  0  0  0
  1  2  1  0
  2  3  2  0
  1  4  2  0
  4  5  1  0
  3  6  1  0
  5  7  1  0
  3  8  1  0
  5  9  2  0
  8  9  1  0
  6 10  2  0
 10 11  1  0
  8 12  1  0
 11 12  2  0
M  END
$$$$

     RDKit          3D

 12 13  0  0  0  0  0  0  0  0999 V2000
  138.7091  151.1474  142.6274 C   0  0  0  0  0  0  0  0  0  0  0  0
  138.5250  151.9378  143.5111 C   0  0  0  0  0  0  0  0  0  0  0  0
  137.3808  151.6590  144.3960 C   0  0  0  0  0  0  0  0  0  0  0  0
  139.6671  150.9842  141.6902 C   0  0  0  0  0  0  0  0  0  0  0  0
  136.7223  150.4781  143.9637 C   0  0  0  0  0  0  0  0  0  0  0  0
  137.7855  150.1127  142.3490 C   0  0  0  0  0  0  0  0  0  0  0  0
  138.1041  149.3710  141.0881 C   0  0  0  0  0  0  0  0  0  0  0  0
  137.2573  148.9419  140.1763 C   0  0  0  0  0  0  0  0  0  0  0  0
  136.7739  149.7552  143.0386 C   0  0  0  0  0  0  0  0  0  0  0  0
  139.4792  150.0700  140.6578 C   0  0  0  0  0  0  0  0  0  0  0  0
  140.1524  149.7626  139.6157 O   0  0  0  0  0  0  0  0  0  0  0  0
  136.9750  152.5544  145.6916 Cl  0  0  0  0  0  0  0  0  0  0  0  0
  1  2  1  0
  2  3  2  0
  1  4  1  0
  3  5  1  0
  1  6  2  0
  6  7  1  0
  7  8  1  0
  5  9  2  0
  6  9  1  0
  4 10  1  0
  7 10  1  0
 10 11  2  0
  3 12  1  0
M  END
$$$$

     RDKit          3D

 12 13  0  0  0  0  0  0  0  0999 V2000
  139.5345  150.8917  142.2314 C   0  0  0  0  0  0  0  0  0  0  0  0
  138.9995  151.9980  142.6394 C   0  0  0  0  0  0  0  0  0  0  0  0
  138.9541  149.6529  142.4257 C   0  0  0  0  0  0  0  0  0  0  0  0
  137.7537  151.8935  143.4337 C   0  0  0  0  0  0  0  0  0  0  0  0
  137.3038  153.0170  144.1125 C   0  0  0  0  0  0  0  0  0  0  0  0
  136.3818  152.7500  145.0844 C   0  0  0  0  0  0  0  0  0  0  0  0
  136.0521  151.4317  145.3456 C   0  0  0  0  0  0  0  0  0  0  0  0
  137.3705  150.5238  143.7866 C   0  0  0  0  0  0  0  0  0  0  0  0
  135.7150  153.9421  145.7689 C   0  0  0  0  0  0  0  0  0  0  0  0
  137.9581  149.5787  143.3070 C   0  0  0  0  0  0  0  0  0  0  0  0
  135.1152  151.3690  146.5133 C   0  0  0  0  0  0  0  0  0  0  0  0
  136.5302  150.5890  144.5659 N   0  0  0  0  0  0  0  0  0  0  0  0
  1  2  2  0
  1  3  1  0
  2  4  1  0
  4  5  1  0
  5  6  2  0
  6  7  1  0
  4  8  2  0
  6  9  1  0
  3 10  2  0
  8 10  1  0
  7 11  1  0
  7 12  2  0
  8 12  1  0
M  END
$$$$

     RDKit          3D

 12 13  0  0  0  0  0  0  0  0999 V2000
  138.7091  151.1474  142.6274 C   0  0  0  0  0  0  0  0  0  0  0  0
  138.5250  151.9378  143.5111 C   0  0  0  0  0  0  0  0  0  0  0  0
  137.3808  151.6590  144.3960 C   0  0  0  0  0  0  0  0  0  0  0  0
  139.6671  150.9842  141.6902 C   0  0  0  0  0  0  0  0  0  0  0  0
  136.7223  150.4781  143.9637 C   0  0  0  0  0  0  0  0  0  0  0  0
  137.6952  150.0834  142.3787 C   0  0  0  0  0  0  0  0  0  0  0  0
  138.0473  149.3792  141.0795 C   0  0  0  0  0  0  0  0  0  0  0  0
  139.2304  149.8975  140.4342 C   0  0  0  0  0  0  0  0  0  0  0  0
  135.5958  150.2798  145.1116 C   0  0  0  0  0  0  0  0  0  0  0  0
  139.9850  150.3759  139.6311 C   0  0  0  0  0  0  0  0  0  0  0  0
  136.7953  149.7871  142.9566 N   0  0  0  0  0  0  0  0  0  0  0  0
  141.1616  151.0141  139.6545 C   0  0  0  0  0  0  0  0  0  0  0  0
  1  2  1  0
  2  3  2  0
  1  4  1  0
  3  5  1  0
  1  6  2  0
  6  7  1  0
  4  8  1  0
  7  8  1  0
  5  9  1  0
  8 10  2  3
  5 11  2  0
  6 11  1  0
 10 12  1  0
M  END
$$$$

     RDKit          3D

 13 14  0  0  0  0  0  0  0  0999 V2000
  139.2620  151.0920  142.4042 C   0  0  0  0  0  0  0  0  0  0  0  0
  138.8619  152.1309  142.9034 C   0  0  0  0  0  0  0  0  0  0  0  0
  137.7834  151.8925  143.8932 C   0  0  0  0  0  0  0  0  0  0  0  0
  137.3598  150.5409  144.0625 C   0  0  0  0  0  0  0  0  0  0  0  0
  136.3243  150.4647  145.1225 C   0  0  0  0  0  0  0  0  0  0  0  0
  139.2661  149.7548  142.8054 C   0  0  0  0  0  0  0  0  0  0  0  0
  137.9618  149.6107  143.5791 C   0  0  0  0  0  0  0  0  0  0  0  0
  140.3557  151.2785  141.2946 C   0  0  0  0  0  0  0  0  0  0  0  0
  135.7270  151.6123  145.4188 C   0  0  0  0  0  0  0  0  0  0  0  0
  139.9803  150.5977  140.0094 C   0  0  0  0  0  0  0  0  0  0  0  0
  136.9314  152.8399  144.6573 C   0  0  0  0  0  0  0  0  0  0  0  0
  136.0576  152.8297  145.3371 C   0  0  0  0  0  0  0  0  0  0  0  0
  135.3291  154.0505  145.9080 C   0  0  0  0  0  0  0  0  0  0  0  0
  1  2  1  0
  2  3  2  0
  3  4  1  0
  4  5  2  0
  1  6  1  0
  4  7  1  0
  6  7  2  0
  1  8  1  0
  5  9  1  0
  8 10  1  0
  3 11  1  0
  9 12  2  0
 11 12  1  0
 12 13  1  0
M  END
$$$$

     RDKit          3D

 13 14  0  0  0  0  0  0  0  0999 V2000
  139.3429  149.9930  140.5895 C   0  0  0  0  0  0  0  0  0  0  0  0
  138.9526  149.9228  139.3665 C   0  0  0  0  0  0  0  0  0  0  0  0
  138.6128  150.1151  141.6415 C   0  0  0  0  0  0  0  0  0  0  0  0
  137.1849  149.8640  141.8304 C   0  0  0  0  0  0  0  0  0  0  0  0
  136.5144  149.7572  140.5779 C   0  0  0  0  0  0  0  0  0  0  0  0
  139.1166  150.5253  143.0849 C   0  0  0  0  0  0  0  0  0  0  0  0
  138.2341  151.1490  143.8701 C   0  0  0  0  0  0  0  0  0  0  0  0
  136.9087  150.9585  143.7785 C   0  0  0  0  0  0  0  0  0  0  0  0
  135.1108  149.6280  140.3918 C   0  0  0  0  0  0  0  0  0  0  0  0
  136.1195  151.4013  144.9642 C   0  0  0  0  0  0  0  0  0  0  0  0
  136.4276  150.2037  142.9060 C   0  0  0  0  0  0  0  0  0  0  0  0
  136.4077  151.3923  146.2159 C   0  0  0  0  0  0  0  0  0  0  0  0
  137.4265  149.6261  139.2598 C   0  0  0  0  0  0  0  0  0  0  0  0
  1  2  2  0
  1  3  1  0
  3  4  1  0
  4  5  2  0
  3  6  1  0
  6  7  2  0
  7  8  1  0
  5  9  1  0
  8 10  1  0
  4 11  1  0
  8 11  2  0
 10 12  2  0
  2 13  1  0
  5 13  1  0
M  END
$$$$

     RDKit          3D

 13 14  0  0  0  0  0  0  0  0999 V2000
  139.3946  150.7519  142.0139 C   0  0  0  0  0  0  0  0  0  0  0  0
  139.0647  150.4900  140.7537 C   0  0  0  0  0  0  0  0  0  0  0  0
  138.4477  150.6373  143.0427 C   0  0  0  0  0  0  0  0  0  0  0  0
  137.8331  149.9847  140.4384 C   0  0  0  0  0  0  0  0  0  0  0  0
  136.8172  149.7858  141.4639 C   0  0  0  0  0  0  0  0  0  0  0  0
  138.7924  151.0563  144.4369 C   0  0  0  0  0  0  0  0  0  0  0  0
  137.7738  151.8330  144.9215 C   0  0  0  0  0  0  0  0  0  0  0  0
  136.5196  151.8512  144.4185 C   0  0  0  0  0  0  0  0  0  0  0  0
  135.4966  152.5698  145.2248 C   0  0  0  0  0  0  0  0  0  0  0  0
  136.2763  151.1209  143.2650 C   0  0  0  0  0  0  0  0  0  0  0  0
  140.0849  150.7272  139.7073 C   0  0  0  0  0  0  0  0  0  0  0  0
  137.0609  150.5443  142.6182 C   0  0  0  0  0  0  0  0  0  0  0  0
  134.6102  151.8890  146.0016 C   0  0  0  0  0  0  0  0  0  0  0  0
  1  2  2  0
  1  3  1  0
  2  4  1  0
  4  5  2  0
  3  6  1  0
  6  7  2  0
  7  8  1  0
  8  9  1  0
  8 10  2  0
  2 11  1  0
  3 12  2  0
  5 12  1  0
 10 12  1  0
  9 13  1  0
M  END
$$$$

     RDKit          3D

 13 14  0  0  0  0  0  0  0  0999 V2000
  139.2620  151.0920  142.4042 C   0  0  0  0  0  0  0  0  0  0  0  0
  138.8619  152.1309  142.9034 C   0  0  0  0  0  0  0  0  0  0  0  0
  137.7834  151.8925  143.8932 C   0  0  0  0  0  0  0  0  0  0  0  0
  137.3598  150.5409  144.0625 C   0  0  0  0  0  0  0  0  0  0  0  0
  136.3243  150.4647  145.1225 C   0  0  0  0  0  0  0  0  0  0  0  0
  139.2661  149.7548  142.8054 C   0  0  0  0  0  0  0  0  0  0  0  0
  137.9618  149.6107  143.5791 C   0  0  0  0  0  0  0  0  0  0  0  0
  140.3557  151.2785  141.2946 C   0  0  0  0  0  0  0  0  0  0  0  0
  139.9713  150.5132  140.0182 C   0  0  0  0  0  0  0  0  0  0  0  0
  135.7294  151.6043  145.4300 C   0  0  0  0  0  0  0  0  0  0  0  0
  135.0303  151.8094  146.5581 C   0  0  0  0  0  0  0  0  0  0  0  0
  137.2138  152.9680  144.6751 C   0  0  0  0  0  0  0  0  0  0  0  0
  136.1387  152.9697  145.1031 C   0  0  0  0  0  0  0  0  0  0  0  0
  1  2  1  0
  2  3  2  0
  3  4  1  0
  4  5  2  0
  1  6  1  0
  4  7  1  0
  6  7  2  0
  1  8  1  0
  8  9  1  0
  5 10  1  0
 10 11  1  0
  3 12  1  0
 10 13  2  0
 12 13  2  0
M  END
$$$$

     RDKit          3D

 13 14  0  0  0  0  0  0  0  0999 V2000
  139.3429  149.9930  140.5895 C   0  0  0  0  0  0  0  0  0  0  0  0
  138.9526  149.9228  139.3665 C   0  0  0  0  0  0  0  0  0  0  0  0
  138.6128  150.1151  141.6415 C   0  0  0  0  0  0  0  0  0  0  0  0
  137.1849  149.8640  141.8304 C   0  0  0  0  0  0  0  0  0  0  0  0
  136.5144  149.7572  140.5779 C   0  0  0  0  0  0  0  0  0  0  0  0
  139.1166  150.5253  143.0849 C   0  0  0  0  0  0  0  0  0  0  0  0
  138.2341  151.1490  143.8701 C   0  0  0  0  0  0  0  0  0  0  0  0
  136.9087  150.9585  143.7785 C   0  0  0  0  0  0  0  0  0  0  0  0
  135.1108  149.6280  140.3918 C   0  0  0  0  0  0  0  0  0  0  0  0
  136.1195  151.4013  144.9642 C   0  0  0  0  0  0  0  0  0  0  0  0
  135.0346  152.2723  144.7824 C   0  0  0  0  0  0  0  0  0  0  0  0
  137.4063  149.6882  139.2153 C   0  0  0  0  0  0  0  0  0  0  0  0
  136.3555  150.2429  142.7165 N   0  0  0  0  0  0  0  0  0  0  0  0
  1  2  2  0
  1  3  1  0
  3  4  1  0
  4  5  2  0
  3  6  1  0
  6  7  2  0
  7  8  1  0
  5  9  1  0
  8 10  1  0
 10 11  1  0
  2 12  1  0
  5 12  1  0
  4 13  1  0
  8 13  2  0
M  END
$$$$

     RDKit          3D

 13 14  0  0  0  0  0  0  0  0999 V2000
  139.3429  149.9930  140.5895 C   0  0  0  0  0  0  0  0  0  0  0  0
  138.9526  149.9228  139.3665 C   0  0  0  0  0  0  0  0  0  0  0  0
  138.6128  150.1151  141.6415 C   0  0  0  0  0  0  0  0  0  0  0  0
  137.1849  149.8640  141.8304 C   0  0  0  0  0  0  0  0  0  0  0  0
  136.5144  149.7572  140.5779 C   0  0  0  0  0  0  0  0  0  0  0  0
  139.1166  150.5253  143.0849 C   0  0  0  0  0  0  0  0  0  0  0  0
  138.2341  151.1490  143.8701 C   0  0  0  0  0  0  0  0  0  0  0  0
  136.9087  150.9585  143.7785 C   0  0  0  0  0  0  0  0  0  0  0  0
  135.1108  149.6280  140.3918 C   0  0  0  0  0  0  0  0  0  0  0  0
  136.1195  151.4013  144.9642 C   0  0  0  0  0  0  0  0  0  0  0  0
  135.0346  152.2723  144.7824 C   0  0  0  0  0  0  0  0  0  0  0  0
  136.3795  150.2214  142.7288 C   0  0  0  0  0  0  0  0  0  0  0  0
  137.4213  149.6301  139.3522 C   0  0  0  0  0  0  0  0  0  0  0  0
  1  2  2  0
  1  3  1  0
  3  4  1  0
  4  5  2  0
  3  6  1  0
  6  7  2  0
  7  8  1  0
  5  9  1  0
  8 10  1  0
 10 11  1  0
  4 12  1  0
  8 12  2  0
  2 13  1  0
  5 13  1  0
M  END
$$$$

     RDKit          3D

 13 14  0  0  0  0  0  0  0  0999 V2000
  139.5546  150.5076  140.4455 C   0  0  0  0  0  0  0  0  0  0  0  0
  139.2164  150.0146  139.3742 C   0  0  0  0  0  0  0  0  0  0  0  0
  138.8577  150.3073  141.5866 C   0  0  0  0  0  0  0  0  0  0  0  0
  137.9802  149.2985  139.2390 C   0  0  0  0  0  0  0  0  0  0  0  0
  139.3336  150.9318  142.8840 C   0  0  0  0  0  0  0  0  0  0  0  0
  138.3135  151.4959  143.6105 C   0  0  0  0  0  0  0  0  0  0  0  0
  137.0050  151.1284  143.2688 C   0  0  0  0  0  0  0  0  0  0  0  0
  136.0278  151.6441  144.2809 C   0  0  0  0  0  0  0  0  0  0  0  0
  137.1010  149.3447  140.4158 C   0  0  0  0  0  0  0  0  0  0  0  0
  135.6799  149.0225  140.2664 C   0  0  0  0  0  0  0  0  0  0  0  0
  137.6114  149.9542  141.5566 C   0  0  0  0  0  0  0  0  0  0  0  0
  136.6823  150.2015  142.5874 N   0  0  0  0  0  0  0  0  0  0  0  0
  136.2906  152.1272  145.3290 O   0  0  0  0  0  0  0  0  0  0  0  0
  1  2  2  0
  1  3  1  0
  2  4  1  0
  3  5  1  0
  5  6  2  0
  6  7  1  0
  7  8  1  0
  4  9  2  0
  9 10  1  0
  3 11  2  0
  9 11  1  0
  7 12  2  0
 11 12  1  0
  8 13  1  0
M  END
$$$$

     RDKit          3D

 13 13  0  0  0  0  0  0  0  0999 V2000
  139.5546  150.5076  140.4455 C   0  0  0  0  0  0  0  0  0  0  0  0
  139.2164  150.0146  139.3742 C   0  0  0  0  0  0  0  0  0  0  0  0
  138.8577  150.3073  141.5866 C   0  0  0  0  0  0  0  0  0  0  0  0
  137.9802  149.2985  139.2390 C   0  0  0  0  0  0  0  0  0  0  0  0
  137.2016  149.2056  140.2784 C   0  0  0  0  0  0  0  0  0  0  0  0
  135.7673  148.7987  140.2461 C   0  0  0  0  0  0  0  0  0  0  0  0
  139.4101  150.8793  142.9241 C   0  0  0  0  0  0  0  0  0  0  0  0
  138.3780  151.0479  144.0095 C   0  0  0  0  0  0  0  0  0  0  0  0
  137.1920  151.0047  143.6833 C   0  0  0  0  0  0  0  0  0  0  0  0
  136.2389  151.5051  144.7137 C   0  0  0  0  0  0  0  0  0  0  0  0
  137.5207  149.8526  141.4561 C   0  0  0  0  0  0  0  0  0  0  0  0
  136.4846  151.9206  145.8661 O   0  0  0  0  0  0  0  0  0  0  0  0
  135.0364  151.9499  144.5462 O   0  0  0  0  0  0  0  0  0  0  0  0
  1  2  2  0
  1  3  1  0
  2  4  1  0
  4  5  2  0
  5  6  1  0
  3  7  1  0
  7  8  2  3
  8  9  1  0
  9 10  1  0
  3 11  2  0
  5 11  1  0
 10 12  2  0
 10 13  1  0
M  END
$$$$

     RDKit          3D

 13 14  0  0  0  0  0  0  0  0999 V2000
  140.3024  150.2148  139.4796 Cl  0  0  0  0  0  0  0  0  0  0  0  0
  138.6763  150.1843  140.5310 C   0  0  0  0  0  0  0  0  0  0  0  0
  137.6367  149.3820  140.0914 C   0  0  0  0  0  0  0  0  0  0  0  0
  139.2364  150.7157  141.5758 C   0  0  0  0  0  0  0  0  0  0  0  0
  138.2159  150.6942  142.6902 C   0  0  0  0  0  0  0  0  0  0  0  0
  137.4463  149.0252  138.7466 C   0  0  0  0  0  0  0  0  0  0  0  0
  136.9084  150.8161  142.5498 C   0  0  0  0  0  0  0  0  0  0  0  0
  136.3019  150.0704  141.3326 C   0  0  0  0  0  0  0  0  0  0  0  0
  138.2535  151.6771  144.0099 C   0  0  0  0  0  0  0  0  0  0  0  0
  137.3548  151.8775  144.6580 C   0  0  0  0  0  0  0  0  0  0  0  0
  136.1619  151.8499  144.3848 C   0  0  0  0  0  0  0  0  0  0  0  0
  135.8410  151.2185  143.3364 C   0  0  0  0  0  0  0  0  0  0  0  0
  134.9993  152.4482  145.1496 C   0  0  0  0  0  0  0  0  0  0  0  0
  1  2  1  0
  2  3  1  0
  2  4  2  0
  4  5  1  0
  3  6  1  0
  5  7  2  0
  3  8  2  0
  7  8  1  0
  5  9  1  0
  9 10  1  0
 10 11  1  0
  7 12  1  0
 11 12  2  0
 11 13  1  0
M  END
$$$$

     RDKit          3D

 13 14  0  0  0  0  0  0  0  0999 V2000
  139.3429  149.9930  140.5895 C   0  0  0  0  0  0  0  0  0  0  0  0
  138.9526  149.9228  139.3665 C   0  0  0  0  0  0  0  0  0  0  0  0
  138.6128  150.1151  141.6415 C   0  0  0  0  0  0  0  0  0  0  0  0
  137.1849  149.8640  141.8304 C   0  0  0  0  0  0  0  0  0  0  0  0
  136.5144  149.7572  140.5779 C   0  0  0  0  0  0  0  0  0  0  0  0
  139.1166  150.5253  143.0849 C   0  0  0  0  0  0  0  0  0  0  0  0
  138.2341  151.1490  143.8701 C   0  0  0  0  0  0  0  0  0  0  0  0
  136.9087  150.9585  143.7785 C   0  0  0  0  0  0  0  0  0  0  0  0
  136.2893  150.2993  142.7352 C   0  0  0  0  0  0  0  0  0  0  0  0
  139.7666  149.9662  138.2170 C   0  0  0  0  0  0  0  0  0  0  0  0
  136.0725  151.4772  144.8572 C   0  0  0  0  0  0  0  0  0  0  0  0
  135.4260  152.7139  144.7990 C   0  0  0  0  0  0  0  0  0  0  0  0
  137.4483  149.6818  139.3423 C   0  0  0  0  0  0  0  0  0  0  0  0
  1  2  2  0
  1  3  1  0
  3  4  1  0
  4  5  2  0
  3  6  1  0
  6  7  2  0
  7  8  1  0
  4  9  1  0
  8  9  1  0
  2 10  1  0
  8 11  1  0
 11 12  1  0
  2 13  1  0
  5 13  1  0
M  END
$$$$

     RDKit          3D

 13 14  0  0  0  0  0  0  0  0999 V2000
  139.2620  151.0920  142.4042 C   0  0  0  0  0  0  0  0  0  0  0  0
  138.8619  152.1309  142.9034 C   0  0  0  0  0  0  0  0  0  0  0  0
  137.7834  151.8925  143.8932 C   0  0  0  0  0  0  0  0  0  0  0  0
  137.3598  150.5409  144.0625 C   0  0  0  0  0  0  0  0  0  0  0  0
  136.3243  150.4647  145.1225 C   0  0  0  0  0  0  0  0  0  0  0  0
  139.2661  149.7548  142.8054 C   0  0  0  0  0  0  0  0  0  0  0  0
  137.9618  149.6107  143.5791 C   0  0  0  0  0  0  0  0  0  0  0  0
  140.3557  151.2785  141.2946 C   0  0  0  0  0  0  0  0  0  0  0  0
  135.7270  151.6123  145.4188 C   0  0  0  0  0  0  0  0  0  0  0  0
  136.9607  152.8510  144.5919 C   0  0  0  0  0  0  0  0  0  0  0  0
  140.0279  150.5930  140.0018 C   0  0  0  0  0  0  0  0  0  0  0  0
  136.0518  152.7652  145.3204 C   0  0  0  0  0  0  0  0  0  0  0  0
  135.5866  153.6381  145.9573 O   0  0  0  0  0  0  0  0  0  0  0  0
  1  2  1  0
  2  3  2  0
  3  4  1  0
  4  5  2  0
  1  6  1  0
  4  7  1  0
  6  7  2  0
  1  8  1  0
  5  9  1  0
  3 10  1  0
  8 11  1  0
  9 12  1  0
 10 12  1  0
 12 13  2  0
M  END
$$$$

     RDKit          3D

 13 14  0  0  0  0  0  0  0  0999 V2000
  139.5546  150.5076  140.4455 C   0  0  0  0  0  0  0  0  0  0  0  0
  139.2164  150.0146  139.3742 C   0  0  0  0  0  0  0  0  0  0  0  0
  138.8577  150.3073  141.5866 C   0  0  0  0  0  0  0  0  0  0  0  0
  139.2276  150.3508  142.8915 C   0  0  0  0  0  0  0  0  0  0  0  0
  138.3509  151.0011  143.9757 C   0  0  0  0  0  0  0  0  0  0  0  0
  137.3998  151.4284  143.6194 C   0  0  0  0  0  0  0  0  0  0  0  0
  136.5337  152.2387  144.6008 C   0  0  0  0  0  0  0  0  0  0  0  0
  137.8483  149.5149  139.3370 C   0  0  0  0  0  0  0  0  0  0  0  0
  136.9622  151.2207  142.2472 C   0  0  0  0  0  0  0  0  0  0  0  0
  137.4805  150.4877  141.4335 C   0  0  0  0  0  0  0  0  0  0  0  0
  136.9129  149.9201  140.2979 C   0  0  0  0  0  0  0  0  0  0  0  0
  136.9767  153.4183  145.0847 C   0  0  0  0  0  0  0  0  0  0  0  0
  135.2838  151.7485  145.0105 C   0  0  0  0  0  0  0  0  0  0  0  0
  1  2  2  0
  1  3  1  0
  3  4  1  0
  4  5  2  0
  5  6  1  0
  6  7  1  0
  2  8  1  0
  6  9  2  0
  3 10  2  0
  9 10  1  0
  8 11  2  0
 10 11  1  0
  7 12  2  0
  7 13  1  0
M  END
$$$$

     RDKit          3D

 13 14  0  0  0  0  0  0  0  0999 V2000
  139.3429  149.9930  140.5895 C   0  0  0  0  0  0  0  0  0  0  0  0
  138.9526  149.9228  139.3665 C   0  0  0  0  0  0  0  0  0  0  0  0
  138.6128  150.1151  141.6415 C   0  0  0  0  0  0  0  0  0  0  0  0
  137.1849  149.8640  141.8304 C   0  0  0  0  0  0  0  0  0  0  0  0
  136.5144  149.7572  140.5779 C   0  0  0  0  0  0  0  0  0  0  0  0
  139.1166  150.5253  143.0849 C   0  0  0  0  0  0  0  0  0  0  0  0
  138.2341  151.1490  143.8701 C   0  0  0  0  0  0  0  0  0  0  0  0
  136.9087  150.9585  143.7785 C   0  0  0  0  0  0  0  0  0  0  0  0
  136.2893  150.2993  142.7352 C   0  0  0  0  0  0  0  0  0  0  0  0
  135.8866  151.5936  145.0115 C   0  0  0  0  0  0  0  0  0  0  0  0
  139.7190  149.9328  138.2033 C   0  0  0  0  0  0  0  0  0  0  0  0
  135.8904  151.4670  146.0939 C   0  0  0  0  0  0  0  0  0  0  0  0
  137.4807  149.6975  139.3191 C   0  0  0  0  0  0  0  0  0  0  0  0
  1  2  2  0
  1  3  1  0
  3  4  1  0
  4  5  2  0
  3  6  1  0
  6  7  2  0
  7  8  1  0
  4  9  1  0
  8  9  2  0
  8 10  1  0
  2 11  1  0
 10 12  2  0
  2 13  1  0
  5 13  1  0
M  END
$$$$

     RDKit          3D

 13 14  0  0  0  0  0  0  0  0999 V2000
  139.3429  149.9930  140.5895 C   0  0  0  0  0  0  0  0  0  0  0  0
  138.9526  149.9228  139.3665 C   0  0  0  0  0  0  0  0  0  0  0  0
  138.6128  150.1151  141.6415 C   0  0  0  0  0  0  0  0  0  0  0  0
  137.5731  149.8751  139.0603 C   0  0  0  0  0  0  0  0  0  0  0  0
  137.0927  149.4986  137.8152 C   0  0  0  0  0  0  0  0  0  0  0  0
  139.0049  150.5465  142.9880 C   0  0  0  0  0  0  0  0  0  0  0  0
  138.1933  151.3789  143.6837 C   0  0  0  0  0  0  0  0  0  0  0  0
  136.9028  151.4680  143.1554 C   0  0  0  0  0  0  0  0  0  0  0  0
  136.7362  150.0347  140.2659 C   0  0  0  0  0  0  0  0  0  0  0  0
  136.0023  152.2339  143.9991 C   0  0  0  0  0  0  0  0  0  0  0  0
  135.1075  151.5487  144.8190 C   0  0  0  0  0  0  0  0  0  0  0  0
  137.1665  150.2782  141.7201 C   0  0  0  0  0  0  0  0  0  0  0  0
  135.2302  150.2303  145.0830 C   0  0  0  0  0  0  0  0  0  0  0  0
  1  2  2  0
  1  3  1  0
  2  4  1  0
  4  5  1  0
  3  6  1  0
  6  7  2  0
  7  8  1  0
  4  9  2  0
  8 10  1  0
 10 11  2  3
  3 12  2  0
  8 12  1  0
  9 12  1  0
 11 13  1  0
M  END
$$$$

     RDKit          3D

 13 14  0  0  0  0  0  0  0  0999 V2000
  139.2620  151.0920  142.4042 C   0  0  0  0  0  0  0  0  0  0  0  0
  138.8619  152.1309  142.9034 C   0  0  0  0  0  0  0  0  0  0  0  0
  137.7834  151.8925  143.8932 C   0  0  0  0  0  0  0  0  0  0  0  0
  137.3598  150.5409  144.0625 C   0  0  0  0  0  0  0  0  0  0  0  0
  136.3243  150.4647  145.1225 C   0  0  0  0  0  0  0  0  0  0  0  0
  139.2661  149.7548  142.8054 C   0  0  0  0  0  0  0  0  0  0  0  0
  137.9618  149.6107  143.5791 C   0  0  0  0  0  0  0  0  0  0  0  0
  140.3557  151.2785  141.2946 C   0  0  0  0  0  0  0  0  0  0  0  0
  135.7270  151.6123  145.4188 C   0  0  0  0  0  0  0  0  0  0  0  0
  137.2216  152.9191  144.6792 C   0  0  0  0  0  0  0  0  0  0  0  0
  134.4832  151.4439  146.3683 C   0  0  0  0  0  0  0  0  0  0  0  0
  140.0237  150.5800  139.9990 C   0  0  0  0  0  0  0  0  0  0  0  0
  136.1170  152.8125  145.4270 C   0  0  0  0  0  0  0  0  0  0  0  0
  1  2  1  0
  2  3  2  0
  3  4  1  0
  4  5  2  0
  1  6  1  0
  4  7  1  0
  6  7  2  0
  1  8  1  0
  5  9  1  0
  3 10  1  0
  9 11  1  0
  8 12  1  0
  9 13  1  0
 10 13  1  0
M  END
$$$$

     RDKit          3D

 13 14  0  0  0  0  0  0  0  0999 V2000
  139.2620  151.0920  142.4042 C   0  0  0  0  0  0  0  0  0  0  0  0
  138.8619  152.1309  142.9034 C   0  0  0  0  0  0  0  0  0  0  0  0
  137.7834  151.8925  143.8932 C   0  0  0  0  0  0  0  0  0  0  0  0
  137.3598  150.5409  144.0625 C   0  0  0  0  0  0  0  0  0  0  0  0
  136.3243  150.4647  145.1225 C   0  0  0  0  0  0  0  0  0  0  0  0
  139.2661  149.7548  142.8054 C   0  0  0  0  0  0  0  0  0  0  0  0
  137.9618  149.6107  143.5791 C   0  0  0  0  0  0  0  0  0  0  0  0
  140.3557  151.2785  141.2946 C   0  0  0  0  0  0  0  0  0  0  0  0
  135.7270  151.6123  145.4188 C   0  0  0  0  0  0  0  0  0  0  0  0
  136.9607  152.8510  144.5919 C   0  0  0  0  0  0  0  0  0  0  0  0
  140.0279  150.5930  140.0018 C   0  0  0  0  0  0  0  0  0  0  0  0
  134.5108  151.3663  146.4457 C   0  0  0  0  0  0  0  0  0  0  0  0
  136.0599  152.8846  145.2639 C   0  0  0  0  0  0  0  0  0  0  0  0
  1  2  1  0
  2  3  2  0
  3  4  1  0
  4  5  2  0
  1  6  1  0
  4  7  1  0
  6  7  2  0
  1  8  1  0
  5  9  1  0
  3 10  1  0
  8 11  1  0
  9 12  1  0
  9 13  2  0
 10 13  1  0
M  END
$$$$

     RDKit          3D

 13 14  0  0  0  0  0  0  0  0999 V2000
  140.3024  150.2148  139.4796 Cl  0  0  0  0  0  0  0  0  0  0  0  0
  138.6763  150.1843  140.5310 C   0  0  0  0  0  0  0  0  0  0  0  0
  137.6367  149.3820  140.0914 C   0  0  0  0  0  0  0  0  0  0  0  0
  138.7708  150.9257  141.6508 C   0  0  0  0  0  0  0  0  0  0  0  0
  138.1273  150.9125  142.4396 C   0  0  0  0  0  0  0  0  0  0  0  0
  136.6299  149.5537  140.9779 C   0  0  0  0  0  0  0  0  0  0  0  0
  138.2522  151.5909  143.8342 C   0  0  0  0  0  0  0  0  0  0  0  0
  137.1959  151.8179  144.6447 C   0  0  0  0  0  0  0  0  0  0  0  0
  136.2204  151.3691  144.3876 C   0  0  0  0  0  0  0  0  0  0  0  0
  134.9690  151.6581  145.2590 C   0  0  0  0  0  0  0  0  0  0  0  0
  135.2866  149.0695  140.6398 C   0  0  0  0  0  0  0  0  0  0  0  0
  136.7626  150.3171  142.1774 C   0  0  0  0  0  0  0  0  0  0  0  0
  135.7043  150.6271  143.1777 C   0  0  0  0  0  0  0  0  0  0  0  0
  1  2  1  0
  2  3  1  0
  2  4  2  0
  4  5  1  0
  3  6  2  0
  5  7  1  0
  7  8  2  0
  8  9  1  0
  9 10  1  0
  6 11  1  0
  5 12  2  0
  6 12  1  0
  9 13  2  0
 12 13  1  0
M  END
$$$$

     RDKit          3D

 13 14  0  0  0  0  0  0  0  0999 V2000
  139.3429  149.9930  140.5895 C   0  0  0  0  0  0  0  0  0  0  0  0
  138.9526  149.9228  139.3665 C   0  0  0  0  0  0  0  0  0  0  0  0
  138.6128  150.1151  141.6415 C   0  0  0  0  0  0  0  0  0  0  0  0
  137.1849  149.8640  141.8304 C   0  0  0  0  0  0  0  0  0  0  0  0
  136.5144  149.7572  140.5779 C   0  0  0  0  0  0  0  0  0  0  0  0
  139.1166  150.5253  143.0849 C   0  0  0  0  0  0  0  0  0  0  0  0
  138.1694  151.0130  144.0451 C   0  0  0  0  0  0  0  0  0  0  0  0
  136.8764  150.9305  143.8065 C   0  0  0  0  0  0  0  0  0  0  0  0
  136.2855  150.2865  142.8108 C   0  0  0  0  0  0  0  0  0  0  0  0
  136.0975  151.4408  144.9510 C   0  0  0  0  0  0  0  0  0  0  0  0
  137.3611  149.6443  139.2949 C   0  0  0  0  0  0  0  0  0  0  0  0
  136.1469  151.0572  146.2065 C   0  0  0  0  0  0  0  0  0  0  0  0
  135.1555  152.5859  144.7495 C   0  0  0  0  0  0  0  0  0  0  0  0
  1  2  2  0
  1  3  1  0
  3  4  1  0
  4  5  2  0
  3  6  1  0
  6  7  2  0
  7  8  1  0
  4  9  1  0
  8  9  1  0
  8 10  1  0
  2 11  1  0
  5 11  1  0
 10 12  2  0
 10 13  1  0
M  END
$$$$

     RDKit          3D

 13 14  0  0  0  0  0  0  0  0999 V2000
  139.3429  149.9930  140.5895 C   0  0  0  0  0  0  0  0  0  0  0  0
  138.9526  149.9228  139.3665 C   0  0  0  0  0  0  0  0  0  0  0  0
  138.6128  150.1151  141.6415 C   0  0  0  0  0  0  0  0  0  0  0  0
  137.1849  149.8640  141.8304 C   0  0  0  0  0  0  0  0  0  0  0  0
  136.5144  149.7572  140.5779 C   0  0  0  0  0  0  0  0  0  0  0  0
  139.1889  150.4046  143.0744 C   0  0  0  0  0  0  0  0  0  0  0  0
  138.2456  150.9517  144.0738 C   0  0  0  0  0  0  0  0  0  0  0  0
  136.7330  150.3979  143.0627 C   0  0  0  0  0  0  0  0  0  0  0  0
  139.6909  149.9363  138.1839 C   0  0  0  0  0  0  0  0  0  0  0  0
  137.1396  150.7734  144.1153 C   0  0  0  0  0  0  0  0  0  0  0  0
  136.3009  151.2990  145.2033 C   0  0  0  0  0  0  0  0  0  0  0  0
  136.5036  151.4058  146.4397 O   0  0  0  0  0  0  0  0  0  0  0  0
  137.2202  149.7228  139.3074 C   0  0  0  0  0  0  0  0  0  0  0  0
  1  2  2  0
  1  3  1  0
  3  4  1  0
  4  5  2  0
  3  6  1  0
  6  7  2  0
  4  8  1  0
  2  9  1  0
  7 10  1  0
  8 10  2  0
 10 11  1  0
 11 12  2  0
  2 13  1  0
  5 13  1  0
M  END
$$$$

     RDKit          3D

 13 14  0  0  0  0  0  0  0  0999 V2000
  138.7091  151.1474  142.6274 C   0  0  0  0  0  0  0  0  0  0  0  0
  138.5250  151.9378  143.5111 C   0  0  0  0  0  0  0  0  0  0  0  0
  137.3909  151.8085  144.0743 C   0  0  0  0  0  0  0  0  0  0  0  0
  136.5966  150.6180  143.9743 C   0  0  0  0  0  0  0  0  0  0  0  0
  137.9826  149.9619  142.2566 C   0  0  0  0  0  0  0  0  0  0  0  0
  136.5070  152.7496  145.0872 C   0  0  0  0  0  0  0  0  0  0  0  0
  135.4505  152.3051  145.6994 C   0  0  0  0  0  0  0  0  0  0  0  0
  135.4654  150.4685  144.8143 C   0  0  0  0  0  0  0  0  0  0  0  0
  134.7549  151.2175  145.5929 C   0  0  0  0  0  0  0  0  0  0  0  0
  137.0621  149.7855  142.9941 C   0  0  0  0  0  0  0  0  0  0  0  0
  140.0457  151.3656  141.7267 O   0  0  0  0  0  0  0  0  0  0  0  0
  139.9898  150.5402  140.5444 C   0  0  0  0  0  0  0  0  0  0  0  0
  134.9008  153.5461  146.5103 C   0  0  0  0  0  0  0  0  0  0  0  0
  1  2  1  0
  2  3  2  0
  3  4  1  0
  1  5  2  0
  3  6  1  0
  6  7  1  0
  4  8  1  0
  7  9  1  0
  8  9  2  0
  4 10  2  0
  5 10  1  0
  1 11  1  0
 11 12  1  0
  7 13  2  0
M  END
$$$$

     RDKit          3D

 13 14  0  0  0  0  0  0  0  0999 V2000
  139.3429  149.9930  140.5895 C   0  0  0  0  0  0  0  0  0  0  0  0
  138.9526  149.9228  139.3665 C   0  0  0  0  0  0  0  0  0  0  0  0
  138.6128  150.1151  141.6415 C   0  0  0  0  0  0  0  0  0  0  0  0
  137.1849  149.8640  141.8304 C   0  0  0  0  0  0  0  0  0  0  0  0
  136.5144  149.7572  140.5779 C   0  0  0  0  0  0  0  0  0  0  0  0
  139.1166  150.5253  143.0849 C   0  0  0  0  0  0  0  0  0  0  0  0
  138.1694  151.0130  144.0451 C   0  0  0  0  0  0  0  0  0  0  0  0
  136.8764  150.9305  143.8065 C   0  0  0  0  0  0  0  0  0  0  0  0
  136.2844  150.2611  142.7998 C   0  0  0  0  0  0  0  0  0  0  0  0
  136.0227  151.6289  144.7126 C   0  0  0  0  0  0  0  0  0  0  0  0
  137.5137  149.6249  139.0970 C   0  0  0  0  0  0  0  0  0  0  0  0
  135.8698  152.8121  144.9967 O   0  0  0  0  0  0  0  0  0  0  0  0
  135.3253  150.6741  145.5780 C   0  0  0  0  0  0  0  0  0  0  0  0
  1  2  2  0
  1  3  1  0
  3  4  1  0
  4  5  2  0
  3  6  1  0
  6  7  2  0
  7  8  1  0
  4  9  1  0
  8  9  1  0
  8 10  1  0
  2 11  1  0
  5 11  1  0
 10 12  2  0
 10 13  1  0
M  END
$$$$

     RDKit          3D

 13 14  0  0  0  0  0  0  0  0999 V2000
  139.3429  149.9930  140.5895 C   0  0  0  0  0  0  0  0  0  0  0  0
  138.9526  149.9228  139.3665 C   0  0  0  0  0  0  0  0  0  0  0  0
  138.6128  150.1151  141.6415 C   0  0  0  0  0  0  0  0  0  0  0  0
  137.1849  149.8640  141.8304 C   0  0  0  0  0  0  0  0  0  0  0  0
  136.5144  149.7572  140.5779 C   0  0  0  0  0  0  0  0  0  0  0  0
  139.1166  150.5253  143.0849 C   0  0  0  0  0  0  0  0  0  0  0  0
  138.2341  151.1490  143.8701 C   0  0  0  0  0  0  0  0  0  0  0  0
  136.9087  150.9585  143.7785 C   0  0  0  0  0  0  0  0  0  0  0  0
  139.8171  149.9679  138.2305 C   0  0  0  0  0  0  0  0  0  0  0  0
  136.2919  150.2634  142.7801 C   0  0  0  0  0  0  0  0  0  0  0  0
  137.5076  149.6870  139.2870 C   0  0  0  0  0  0  0  0  0  0  0  0
  136.1066  151.5658  144.8526 C   0  0  0  0  0  0  0  0  0  0  0  0
  135.4907  152.6286  144.8767 C   0  0  0  0  0  0  0  0  0  0  0  0
  1  2  2  0
  1  3  1  0
  3  4  1  0
  4  5  2  0
  3  6  1  0
  6  7  2  0
  7  8  1  0
  2  9  1  0
  4 10  1  0
  8 10  1  0
  2 11  1  0
  5 11  1  0
  8 12  1  0
 12 13  2  0
M  END
$$$$

     RDKit          3D

 13 14  0  0  0  0  0  0  0  0999 V2000
  139.2620  151.0920  142.4042 C   0  0  0  0  0  0  0  0  0  0  0  0
  138.8619  152.1309  142.9034 C   0  0  0  0  0  0  0  0  0  0  0  0
  137.7834  151.8925  143.8932 C   0  0  0  0  0  0  0  0  0  0  0  0
  137.3598  150.5409  144.0625 C   0  0  0  0  0  0  0  0  0  0  0  0
  136.3243  150.4647  145.1225 C   0  0  0  0  0  0  0  0  0  0  0  0
  139.2661  149.7548  142.8054 C   0  0  0  0  0  0  0  0  0  0  0  0
  137.9618  149.6107  143.5791 C   0  0  0  0  0  0  0  0  0  0  0  0
  140.3557  151.2785  141.2946 C   0  0  0  0  0  0  0  0  0  0  0  0
  139.9713  150.5132  140.0182 C   0  0  0  0  0  0  0  0  0  0  0  0
  135.7294  151.6043  145.4300 C   0  0  0  0  0  0  0  0  0  0  0  0
  135.0303  151.8094  146.5581 C   0  0  0  0  0  0  0  0  0  0  0  0
  137.2138  152.9680  144.6751 C   0  0  0  0  0  0  0  0  0  0  0  0
  136.3055  152.9657  145.2569 C   0  0  0  0  0  0  0  0  0  0  0  0
  1  2  1  0
  2  3  2  0
  3  4  1  0
  4  5  2  0
  1  6  1  0
  4  7  1  0
  6  7  2  0
  1  8  1  0
  8  9  1  0
  5 10  1  0
 10 11  1  0
  3 12  1  0
 10 13  1  0
 12 13  2  0
M  END
$$$$

     RDKit          3D

 13 14  0  0  0  0  0  0  0  0999 V2000
  139.2620  151.0920  142.4042 C   0  0  0  0  0  0  0  0  0  0  0  0
  138.8619  152.1309  142.9034 C   0  0  0  0  0  0  0  0  0  0  0  0
  137.9125  151.7980  143.7817 C   0  0  0  0  0  0  0  0  0  0  0  0
  138.8290  150.4014  141.6007 C   0  0  0  0  0  0  0  0  0  0  0  0
  137.6686  149.9547  141.7571 C   0  0  0  0  0  0  0  0  0  0  0  0
  137.5096  152.5999  144.9582 C   0  0  0  0  0  0  0  0  0  0  0  0
  136.8118  150.7640  143.7827 C   0  0  0  0  0  0  0  0  0  0  0  0
  135.9232  150.7938  144.8969 C   0  0  0  0  0  0  0  0  0  0  0  0
  136.0019  151.8141  145.6610 C   0  0  0  0  0  0  0  0  0  0  0  0
  136.8505  149.5894  140.6103 C   0  0  0  0  0  0  0  0  0  0  0  0
  136.7921  150.0611  142.6809 N   0  0  0  0  0  0  0  0  0  0  0  0
  136.7592  152.7016  145.6902 C   0  0  0  0  0  0  0  0  0  0  0  0
  134.9229  151.8974  146.6839 C   0  0  0  0  0  0  0  0  0  0  0  0
  1  2  1  0
  2  3  2  0
  1  4  2  0
  4  5  1  0
  3  6  1  0
  3  7  1  0
  7  8  2  0
  8  9  1  0
  5 10  1  0
  5 11  2  0
  7 11  1  0
  6 12  1  0
  9 12  1  0
  9 13  2  0
M  END
$$$$

     RDKit          3D

 13 14  0  0  0  0  0  0  0  0999 V2000
  139.3429  149.9930  140.5895 C   0  0  0  0  0  0  0  0  0  0  0  0
  138.9526  149.9228  139.3665 C   0  0  0  0  0  0  0  0  0  0  0  0
  138.6128  150.1151  141.6415 C   0  0  0  0  0  0  0  0  0  0  0  0
  137.1849  149.8640  141.8304 C   0  0  0  0  0  0  0  0  0  0  0  0
  136.5144  149.7572  140.5779 C   0  0  0  0  0  0  0  0  0  0  0  0
  139.1166  150.5253  143.0849 C   0  0  0  0  0  0  0  0  0  0  0  0
  138.1694  151.0130  144.0451 C   0  0  0  0  0  0  0  0  0  0  0  0
  136.8764  150.9305  143.8065 C   0  0  0  0  0  0  0  0  0  0  0  0
  136.2382  150.3581  142.9441 C   0  0  0  0  0  0  0  0  0  0  0  0
  136.0817  151.4478  145.0607 C   0  0  0  0  0  0  0  0  0  0  0  0
  136.3207  151.5351  146.2338 C   0  0  0  0  0  0  0  0  0  0  0  0
  137.5220  149.6272  139.1120 C   0  0  0  0  0  0  0  0  0  0  0  0
  135.2286  152.5599  144.8908 C   0  0  0  0  0  0  0  0  0  0  0  0
  1  2  2  0
  1  3  1  0
  3  4  1  0
  4  5  2  0
  3  6  1  0
  6  7  2  0
  7  8  1  0
  4  9  1  0
  8  9  2  0
  8 10  1  0
 10 11  1  0
  2 12  1  0
  5 12  1  0
 10 13  1  0
M  END
$$$$

     RDKit          3D

 13 14  0  0  0  0  0  0  0  0999 V2000
  139.3429  149.9930  140.5895 C   0  0  0  0  0  0  0  0  0  0  0  0
  138.9526  149.9228  139.3665 C   0  0  0  0  0  0  0  0  0  0  0  0
  138.6128  150.1151  141.6415 C   0  0  0  0  0  0  0  0  0  0  0  0
  137.1849  149.8640  141.8304 C   0  0  0  0  0  0  0  0  0  0  0  0
  136.5144  149.7572  140.5779 C   0  0  0  0  0  0  0  0  0  0  0  0
  139.1889  150.4046  143.0744 C   0  0  0  0  0  0  0  0  0  0  0  0
  138.2456  150.9517  144.0738 C   0  0  0  0  0  0  0  0  0  0  0  0
  139.6584  149.8786  138.1597 C   0  0  0  0  0  0  0  0  0  0  0  0
  137.0523  149.6910  139.2208 C   0  0  0  0  0  0  0  0  0  0  0  0
  136.5812  150.3293  142.9806 C   0  0  0  0  0  0  0  0  0  0  0  0
  137.0307  150.7399  144.0939 C   0  0  0  0  0  0  0  0  0  0  0  0
  136.2401  151.2798  145.1788 C   0  0  0  0  0  0  0  0  0  0  0  0
  135.2484  152.1734  144.9398 C   0  0  0  0  0  0  0  0  0  0  0  0
  1  2  2  0
  1  3  1  0
  3  4  1  0
  4  5  2  0
  3  6  1  0
  6  7  2  0
  2  8  1  0
  2  9  1  0
  5  9  1  0
  4 10  1  0
  7 11  1  0
 10 11  2  0
 11 12  1  0
 12 13  1  0
M  END
$$$$

     RDKit          3D

 13 14  0  0  0  0  0  0  0  0999 V2000
  139.0001  149.7643  140.3654 C   0  0  0  0  0  0  0  0  0  0  0  0
  138.7141  149.5451  139.1252 C   0  0  0  0  0  0  0  0  0  0  0  0
  138.1592  150.0995  141.2821 C   0  0  0  0  0  0  0  0  0  0  0  0
  137.3238  149.5788  138.6759 C   0  0  0  0  0  0  0  0  0  0  0  0
  137.0151  149.1362  137.4394 O   0  0  0  0  0  0  0  0  0  0  0  0
  136.3858  149.5936  139.3472 C   0  0  0  0  0  0  0  0  0  0  0  0
  135.0528  149.6286  139.2752 C   0  0  0  0  0  0  0  0  0  0  0  0
  138.5598  150.4914  142.6508 C   0  0  0  0  0  0  0  0  0  0  0  0
  137.6889  150.9036  143.6523 C   0  0  0  0  0  0  0  0  0  0  0  0
  136.4231  150.8736  143.2321 C   0  0  0  0  0  0  0  0  0  0  0  0
  136.6234  150.2962  141.3245 C   0  0  0  0  0  0  0  0  0  0  0  0
  135.9369  150.5806  142.0846 C   0  0  0  0  0  0  0  0  0  0  0  0
  136.1589  149.8216  140.1633 C   0  0  0  0  0  0  0  0  0  0  0  0
  1  2  2  0
  1  3  1  0
  2  4  1  0
  4  5  1  0
  4  6  2  0
  6  7  1  0
  3  8  1  0
  8  9  2  0
  9 10  1  0
  3 11  2  0
 10 12  2  0
 11 12  1  0
  7 13  1  0
 11 13  1  0
M  END
$$$$

     RDKit          3D

 13 14  0  0  0  0  0  0  0  0999 V2000
  138.7091  151.1474  142.6274 C   0  0  0  0  0  0  0  0  0  0  0  0
  138.5250  151.9378  143.5111 C   0  0  0  0  0  0  0  0  0  0  0  0
  137.3808  151.6590  144.3960 C   0  0  0  0  0  0  0  0  0  0  0  0
  139.6671  150.9842  141.6902 C   0  0  0  0  0  0  0  0  0  0  0  0
  136.7223  150.4781  143.9637 C   0  0  0  0  0  0  0  0  0  0  0  0
  137.6952  150.0834  142.3787 C   0  0  0  0  0  0  0  0  0  0  0  0
  138.0473  149.3792  141.0795 C   0  0  0  0  0  0  0  0  0  0  0  0
  136.7365  149.7536  143.0233 C   0  0  0  0  0  0  0  0  0  0  0  0
  137.1805  152.5300  145.5148 O   0  0  0  0  0  0  0  0  0  0  0  0
  139.0279  150.1068  140.4476 C   0  0  0  0  0  0  0  0  0  0  0  0
  139.4899  150.1044  139.2675 C   0  0  0  0  0  0  0  0  0  0  0  0
  135.9672  153.1359  145.4346 C   0  0  0  0  0  0  0  0  0  0  0  0
  140.7595  150.3881  138.8226 C   0  0  0  0  0  0  0  0  0  0  0  0
  1  2  1  0
  2  3  2  0
  1  4  1  0
  3  5  1  0
  1  6  2  0
  6  7  1  0
  5  8  2  0
  6  8  1  0
  3  9  1  0
  4 10  1  0
  7 10  1  0
 10 11  2  3
  9 12  1  0
 11 13  1  0
M  END
$$$$

     RDKit          3D

 13 14  0  0  0  0  0  0  0  0999 V2000
  139.3429  149.9930  140.5895 C   0  0  0  0  0  0  0  0  0  0  0  0
  138.9526  149.9228  139.3665 C   0  0  0  0  0  0  0  0  0  0  0  0
  138.6128  150.1151  141.6415 C   0  0  0  0  0  0  0  0  0  0  0  0
  137.1849  149.8640  141.8304 C   0  0  0  0  0  0  0  0  0  0  0  0
  136.5144  149.7572  140.5779 C   0  0  0  0  0  0  0  0  0  0  0  0
  139.1889  150.4046  143.0744 C   0  0  0  0  0  0  0  0  0  0  0  0
  138.2456  150.9517  144.0738 C   0  0  0  0  0  0  0  0  0  0  0  0
  136.7330  150.3979  143.0627 C   0  0  0  0  0  0  0  0  0  0  0  0
  139.6909  149.9363  138.1839 C   0  0  0  0  0  0  0  0  0  0  0  0
  137.1310  150.7054  144.1087 C   0  0  0  0  0  0  0  0  0  0  0  0
  136.3036  151.3842  145.2572 C   0  0  0  0  0  0  0  0  0  0  0  0
  135.1711  149.5308  140.5018 C   0  0  0  0  0  0  0  0  0  0  0  0
  137.3867  149.7005  139.4082 C   0  0  0  0  0  0  0  0  0  0  0  0
  1  2  2  0
  1  3  1  0
  3  4  1  0
  4  5  2  0
  3  6  1  0
  6  7  2  0
  4  8  1  0
  2  9  1  0
  7 10  1  0
  8 10  2  0
 10 11  1  0
  5 12  1  0
  2 13  1  0
  5 13  1  0
M  END
$$$$

     RDKit          3D

 13 14  0  0  0  0  0  0  0  0999 V2000
  139.5546  150.5076  140.4455 C   0  0  0  0  0  0  0  0  0  0  0  0
  139.2164  150.0146  139.3742 C   0  0  0  0  0  0  0  0  0  0  0  0
  138.8577  150.3073  141.5866 C   0  0  0  0  0  0  0  0  0  0  0  0
  139.2276  150.3508  142.8915 C   0  0  0  0  0  0  0  0  0  0  0  0
  138.3509  151.0011  143.9757 C   0  0  0  0  0  0  0  0  0  0  0  0
  137.3998  151.4284  143.6194 C   0  0  0  0  0  0  0  0  0  0  0  0
  136.5337  152.2387  144.6008 C   0  0  0  0  0  0  0  0  0  0  0  0
  137.8483  149.5149  139.3370 C   0  0  0  0  0  0  0  0  0  0  0  0
  136.9622  151.2207  142.2472 C   0  0  0  0  0  0  0  0  0  0  0  0
  135.3288  151.7446  145.0390 C   0  0  0  0  0  0  0  0  0  0  0  0
  136.8277  153.2377  144.9813 O   0  0  0  0  0  0  0  0  0  0  0  0
  137.0914  149.8409  140.3844 C   0  0  0  0  0  0  0  0  0  0  0  0
  137.5464  150.4246  141.4307 C   0  0  0  0  0  0  0  0  0  0  0  0
  1  2  2  0
  1  3  1  0
  3  4  1  0
  4  5  2  0
  5  6  1  0
  6  7  1  0
  2  8  1  0
  6  9  2  0
  7 10  1  0
  7 11  2  0
  8 12  2  0
  3 13  2  0
  9 13  1  0
 12 13  1  0
M  END
$$$$

     RDKit          3D

 13 14  0  0  0  0  0  0  0  0999 V2000
  138.9700  151.3143  142.5679 C   0  0  0  0  0  0  0  0  0  0  0  0
  138.6023  152.0885  143.2650 C   0  0  0  0  0  0  0  0  0  0  0  0
  137.6696  151.8114  144.0578 C   0  0  0  0  0  0  0  0  0  0  0  0
  136.5753  152.7057  144.5965 C   0  0  0  0  0  0  0  0  0  0  0  0
  135.5868  152.4509  145.5251 C   0  0  0  0  0  0  0  0  0  0  0  0
  135.6617  151.0048  145.8899 C   0  0  0  0  0  0  0  0  0  0  0  0
  139.9422  151.4878  141.3764 C   0  0  0  0  0  0  0  0  0  0  0  0
  137.2863  150.4066  144.6506 C   0  0  0  0  0  0  0  0  0  0  0  0
  134.6530  150.7185  146.9618 C   0  0  0  0  0  0  0  0  0  0  0  0
  139.8322  150.5311  140.2820 C   0  0  0  0  0  0  0  0  0  0  0  0
  138.3207  149.5143  144.1940 C   0  0  0  0  0  0  0  0  0  0  0  0
  139.0691  149.9816  143.0169 C   0  0  0  0  0  0  0  0  0  0  0  0
  136.5450  150.2319  145.3695 N   0  0  0  0  0  0  0  0  0  0  0  0
  1  2  2  0
  2  3  1  0
  3  4  1  0
  4  5  2  0
  5  6  1  0
  1  7  1  0
  3  8  2  0
  6  9  1  0
  7 10  1  0
  8 11  1  0
  1 12  1  0
 11 12  2  0
  6 13  2  0
  8 13  1  0
M  END
$$$$

     RDKit          3D

 13 14  0  0  0  0  0  0  0  0999 V2000
  139.3429  149.9930  140.5895 C   0  0  0  0  0  0  0  0  0  0  0  0
  138.9526  149.9228  139.3665 C   0  0  0  0  0  0  0  0  0  0  0  0
  138.6128  150.1151  141.6415 C   0  0  0  0  0  0  0  0  0  0  0  0
  137.1849  149.8640  141.8304 C   0  0  0  0  0  0  0  0  0  0  0  0
  136.5144  149.7572  140.5779 C   0  0  0  0  0  0  0  0  0  0  0  0
  139.1166  150.5253  143.0849 C   0  0  0  0  0  0  0  0  0  0  0  0
  138.1694  151.0130  144.0451 C   0  0  0  0  0  0  0  0  0  0  0  0
  136.8764  150.9305  143.8065 C   0  0  0  0  0  0  0  0  0  0  0  0
  136.2382  150.3581  142.9441 C   0  0  0  0  0  0  0  0  0  0  0  0
  136.0817  151.4478  145.0607 C   0  0  0  0  0  0  0  0  0  0  0  0
  136.3207  151.5351  146.2338 C   0  0  0  0  0  0  0  0  0  0  0  0
  134.8173  152.1053  144.8012 C   0  0  0  0  0  0  0  0  0  0  0  0
  137.4141  149.6344  139.3349 C   0  0  0  0  0  0  0  0  0  0  0  0
  1  2  2  0
  1  3  1  0
  3  4  1  0
  4  5  2  0
  3  6  1  0
  6  7  2  0
  7  8  1  0
  4  9  1  0
  8  9  2  0
  8 10  1  0
 10 11  1  0
 10 12  2  0
  2 13  1  0
  5 13  1  0
M  END
$$$$

     RDKit          3D

 13 14  0  0  0  0  0  0  0  0999 V2000
  139.3429  149.9930  140.5895 C   0  0  0  0  0  0  0  0  0  0  0  0
  138.9526  149.9228  139.3665 C   0  0  0  0  0  0  0  0  0  0  0  0
  138.6128  150.1151  141.6415 C   0  0  0  0  0  0  0  0  0  0  0  0
  137.1849  149.8640  141.8304 C   0  0  0  0  0  0  0  0  0  0  0  0
  136.5144  149.7572  140.5779 C   0  0  0  0  0  0  0  0  0  0  0  0
  139.1166  150.5253  143.0849 C   0  0  0  0  0  0  0  0  0  0  0  0
  138.1694  151.0130  144.0451 C   0  0  0  0  0  0  0  0  0  0  0  0
  136.8764  150.9305  143.8065 C   0  0  0  0  0  0  0  0  0  0  0  0
  136.2855  150.2865  142.8108 C   0  0  0  0  0  0  0  0  0  0  0  0
  136.0190  151.6165  144.7447 C   0  0  0  0  0  0  0  0  0  0  0  0
  134.9783  151.5025  145.0655 C   0  0  0  0  0  0  0  0  0  0  0  0
  136.7396  152.7043  145.5321 C   0  0  0  0  0  0  0  0  0  0  0  0
  137.3538  149.6395  139.2937 C   0  0  0  0  0  0  0  0  0  0  0  0
  1  2  2  0
  1  3  1  0
  3  4  1  0
  4  5  2  0
  3  6  1  0
  6  7  2  0
  7  8  1  0
  4  9  1  0
  8  9  1  0
  8 10  2  3
 10 11  1  0
 10 12  1  0
  2 13  1  0
  5 13  1  0
M  END
$$$$

     RDKit          3D

 13 14  0  0  0  0  0  0  0  0999 V2000
  139.5546  150.5076  140.4455 C   0  0  0  0  0  0  0  0  0  0  0  0
  139.2164  150.0146  139.3742 C   0  0  0  0  0  0  0  0  0  0  0  0
  138.8577  150.3073  141.5866 C   0  0  0  0  0  0  0  0  0  0  0  0
  139.2276  150.3508  142.8915 C   0  0  0  0  0  0  0  0  0  0  0  0
  138.5491  151.2697  143.6827 C   0  0  0  0  0  0  0  0  0  0  0  0
  137.8571  149.4543  139.3226 C   0  0  0  0  0  0  0  0  0  0  0  0
  137.4559  150.0376  141.2281 C   0  0  0  0  0  0  0  0  0  0  0  0
  137.4125  148.8824  138.0524 C   0  0  0  0  0  0  0  0  0  0  0  0
  136.5650  150.3592  142.5332 C   0  0  0  0  0  0  0  0  0  0  0  0
  137.0839  151.0880  143.5409 C   0  0  0  0  0  0  0  0  0  0  0  0
  136.1664  151.7873  144.6559 C   0  0  0  0  0  0  0  0  0  0  0  0
  136.9943  149.6538  140.3615 C   0  0  0  0  0  0  0  0  0  0  0  0
  136.4617  153.0697  145.0687 C   0  0  0  0  0  0  0  0  0  0  0  0
  1  2  2  0
  1  3  1  0
  3  4  1  0
  4  5  2  0
  2  6  1  0
  3  7  2  0
  6  8  1  0
  7  9  1  0
  5 10  1  0
  9 10  2  0
 10 11  1  0
  6 12  2  0
  7 12  1  0
 11 13  2  0
M  END
$$$$

     RDKit          3D

 13 14  0  0  0  0  0  0  0  0999 V2000
  139.3429  149.9930  140.5895 C   0  0  0  0  0  0  0  0  0  0  0  0
  138.9526  149.9228  139.3665 C   0  0  0  0  0  0  0  0  0  0  0  0
  138.6128  150.1151  141.6415 C   0  0  0  0  0  0  0  0  0  0  0  0
  137.5731  149.8751  139.0603 C   0  0  0  0  0  0  0  0  0  0  0  0
  136.7804  149.7030  140.1442 C   0  0  0  0  0  0  0  0  0  0  0  0
  139.1254  150.3586  143.0279 C   0  0  0  0  0  0  0  0  0  0  0  0
  138.2371  150.8994  144.0334 C   0  0  0  0  0  0  0  0  0  0  0  0
  137.1231  151.2869  143.6980 C   0  0  0  0  0  0  0  0  0  0  0  0
  137.1855  150.0443  141.4783 C   0  0  0  0  0  0  0  0  0  0  0  0
  136.3032  150.6378  142.5455 C   0  0  0  0  0  0  0  0  0  0  0  0
  136.2433  151.9753  144.6149 C   0  0  0  0  0  0  0  0  0  0  0  0
  136.4447  153.2645  145.0186 C   0  0  0  0  0  0  0  0  0  0  0  0
  135.6181  151.2546  145.5275 C   0  0  0  0  0  0  0  0  0  0  0  0
  1  2  2  0
  1  3  1  0
  2  4  1  0
  4  5  2  0
  3  6  1  0
  6  7  2  0
  7  8  1  0
  3  9  2  0
  5  9  1  0
  8 10  1  0
  9 10  1  0
  8 11  1  0
 11 12  1  0
 11 13  2  0
M  END
$$$$

     RDKit          3D

 13 14  0  0  0  0  0  0  0  0999 V2000
  140.3024  150.2148  139.4796 Cl  0  0  0  0  0  0  0  0  0  0  0  0
  138.6763  150.1843  140.5310 C   0  0  0  0  0  0  0  0  0  0  0  0
  137.6367  149.3820  140.0914 C   0  0  0  0  0  0  0  0  0  0  0  0
  139.0296  150.8810  141.6190 C   0  0  0  0  0  0  0  0  0  0  0  0
  136.6556  149.6404  140.8181 C   0  0  0  0  0  0  0  0  0  0  0  0
  136.6486  150.4486  141.8740 C   0  0  0  0  0  0  0  0  0  0  0  0
  135.4283  150.7331  142.7845 C   0  0  0  0  0  0  0  0  0  0  0  0
  137.8050  151.0306  142.4471 C   0  0  0  0  0  0  0  0  0  0  0  0
  135.6546  150.8747  144.1281 C   0  0  0  0  0  0  0  0  0  0  0  0
  136.5585  151.5502  144.7332 C   0  0  0  0  0  0  0  0  0  0  0  0
  136.6225  152.0802  145.9888 C   0  0  0  0  0  0  0  0  0  0  0  0
  137.9538  151.7672  143.8099 C   0  0  0  0  0  0  0  0  0  0  0  0
  135.6318  153.0035  146.2661 C   0  0  0  0  0  0  0  0  0  0  0  0
  1  2  1  0
  2  3  2  0
  2  4  1  0
  3  5  1  0
  5  6  2  0
  6  7  1  0
  4  8  2  0
  6  8  1  0
  7  9  2  0
  9 10  1  0
 10 11  1  0
  8 12  1  0
 10 12  2  0
 11 13  1  0
M  END
$$$$

     RDKit          3D

 13 14  0  0  0  0  0  0  0  0999 V2000
  138.7091  151.1474  142.6274 C   0  0  0  0  0  0  0  0  0  0  0  0
  138.5250  151.9378  143.5111 C   0  0  0  0  0  0  0  0  0  0  0  0
  137.3808  151.6590  144.3960 C   0  0  0  0  0  0  0  0  0  0  0  0
  139.6671  150.9842  141.6902 C   0  0  0  0  0  0  0  0  0  0  0  0
  136.7223  150.4781  143.9637 C   0  0  0  0  0  0  0  0  0  0  0  0
  137.6952  150.0834  142.3787 C   0  0  0  0  0  0  0  0  0  0  0  0
  138.0473  149.3792  141.0795 C   0  0  0  0  0  0  0  0  0  0  0  0
  139.4970  150.3391  140.5091 C   0  0  0  0  0  0  0  0  0  0  0  0
  137.1813  152.6075  145.4741 O   0  0  0  0  0  0  0  0  0  0  0  0
  139.9596  150.2341  139.4262 O   0  0  0  0  0  0  0  0  0  0  0  0
  136.7502  153.7455  145.1113 C   0  0  0  0  0  0  0  0  0  0  0  0
  135.6458  150.1852  145.1578 C   0  0  0  0  0  0  0  0  0  0  0  0
  136.8028  149.7383  142.9831 N   0  0  0  0  0  0  0  0  0  0  0  0
  1  2  1  0
  2  3  2  0
  1  4  1  0
  3  5  1  0
  1  6  2  0
  6  7  1  0
  4  8  1  0
  7  8  1  0
  3  9  1  0
  8 10  2  0
  9 11  1  0
  5 12  1  0
  5 13  2  0
  6 13  1  0
M  END
$$$$

     RDKit          3D

 13 14  0  0  0  0  0  0  0  0999 V2000
  139.3946  150.7519  142.0139 C   0  0  0  0  0  0  0  0  0  0  0  0
  139.0647  150.4900  140.7537 C   0  0  0  0  0  0  0  0  0  0  0  0
  138.4477  150.6373  143.0427 C   0  0  0  0  0  0  0  0  0  0  0  0
  137.8331  149.9847  140.4384 C   0  0  0  0  0  0  0  0  0  0  0  0
  136.8990  149.7655  141.3322 C   0  0  0  0  0  0  0  0  0  0  0  0
  138.7710  151.0481  144.4226 C   0  0  0  0  0  0  0  0  0  0  0  0
  137.5960  151.6420  145.1154 C   0  0  0  0  0  0  0  0  0  0  0  0
  136.4933  151.6679  144.5430 C   0  0  0  0  0  0  0  0  0  0  0  0
  135.4715  149.5391  140.9774 C   0  0  0  0  0  0  0  0  0  0  0  0
  135.4095  152.3547  145.3416 C   0  0  0  0  0  0  0  0  0  0  0  0
  136.2969  151.0942  143.2749 C   0  0  0  0  0  0  0  0  0  0  0  0
  137.2471  150.3743  142.5419 C   0  0  0  0  0  0  0  0  0  0  0  0
  134.6801  151.6197  146.1872 C   0  0  0  0  0  0  0  0  0  0  0  0
  1  2  2  0
  1  3  1  0
  2  4  1  0
  4  5  2  0
  3  6  1  0
  6  7  2  0
  7  8  1  0
  5  9  1  0
  8 10  1  0
  8 11  2  0
  3 12  2  0
  5 12  1  0
 11 12  1  0
 10 13  1  0
M  END
$$$$

     RDKit          3D

 13 14  0  0  0  0  0  0  0  0999 V2000
  139.3429  149.9930  140.5895 C   0  0  0  0  0  0  0  0  0  0  0  0
  138.9526  149.9228  139.3665 C   0  0  0  0  0  0  0  0  0  0  0  0
  138.6128  150.1151  141.6415 C   0  0  0  0  0  0  0  0  0  0  0  0
  137.1849  149.8640  141.8304 C   0  0  0  0  0  0  0  0  0  0  0  0
  136.5144  149.7572  140.5779 C   0  0  0  0  0  0  0  0  0  0  0  0
  139.1166  150.5253  143.0849 C   0  0  0  0  0  0  0  0  0  0  0  0
  138.1694  151.0130  144.0451 C   0  0  0  0  0  0  0  0  0  0  0  0
  136.8764  150.9305  143.8065 C   0  0  0  0  0  0  0  0  0  0  0  0
  136.2855  150.2865  142.8108 C   0  0  0  0  0  0  0  0  0  0  0  0
  135.2415  149.4705  140.4112 C   0  0  0  0  0  0  0  0  0  0  0  0
  136.4224  151.3294  145.1622 C   0  0  0  0  0  0  0  0  0  0  0  0
  135.3155  152.1849  145.2669 C   0  0  0  0  0  0  0  0  0  0  0  0
  137.4981  149.6444  139.1634 C   0  0  0  0  0  0  0  0  0  0  0  0
  1  2  2  0
  1  3  1  0
  3  4  1  0
  4  5  2  0
  3  6  1  0
  6  7  2  0
  7  8  1  0
  4  9  1  0
  8  9  1  0
  5 10  1  0
  8 11  2  3
 11 12  1  0
  2 13  1  0
  5 13  1  0
M  END
$$$$

     RDKit          3D

 13 14  0  0  0  0  0  0  0  0999 V2000
  139.2620  151.0920  142.4042 C   0  0  0  0  0  0  0  0  0  0  0  0
  138.8619  152.1309  142.9034 C   0  0  0  0  0  0  0  0  0  0  0  0
  137.7834  151.8925  143.8932 C   0  0  0  0  0  0  0  0  0  0  0  0
  137.3598  150.5409  144.0625 C   0  0  0  0  0  0  0  0  0  0  0  0
  136.3243  150.4647  145.1225 C   0  0  0  0  0  0  0  0  0  0  0  0
  139.2661  149.7548  142.8054 C   0  0  0  0  0  0  0  0  0  0  0  0
  137.9618  149.6107  143.5791 C   0  0  0  0  0  0  0  0  0  0  0  0
  140.3557  151.2785  141.2946 C   0  0  0  0  0  0  0  0  0  0  0  0
  135.7270  151.6123  145.4188 C   0  0  0  0  0  0  0  0  0  0  0  0
  136.9607  152.8510  144.5919 C   0  0  0  0  0  0  0  0  0  0  0  0
  136.0735  152.7274  145.4658 C   0  0  0  0  0  0  0  0  0  0  0  0
  139.9885  150.5606  139.9799 C   0  0  0  0  0  0  0  0  0  0  0  0
  135.2758  153.7819  145.6767 C   0  0  0  0  0  0  0  0  0  0  0  0
  1  2  1  0
  2  3  2  0
  3  4  1  0
  4  5  2  0
  1  6  1  0
  4  7  1  0
  6  7  2  0
  1  8  1  0
  5  9  1  0
  3 10  1  0
  9 11  1  0
 10 11  1  0
  8 12  1  0
 11 13  2  0
M  END
$$$$

     RDKit          3D

 13 14  0  0  0  0  0  0  0  0999 V2000
  139.5546  150.5076  140.4455 C   0  0  0  0  0  0  0  0  0  0  0  0
  139.2164  150.0146  139.3742 C   0  0  0  0  0  0  0  0  0  0  0  0
  138.8577  150.3073  141.5866 C   0  0  0  0  0  0  0  0  0  0  0  0
  139.2276  150.3508  142.8915 C   0  0  0  0  0  0  0  0  0  0  0  0
  138.3509  151.0011  143.9757 C   0  0  0  0  0  0  0  0  0  0  0  0
  137.3998  151.4284  143.6194 C   0  0  0  0  0  0  0  0  0  0  0  0
  136.5337  152.2387  144.6008 C   0  0  0  0  0  0  0  0  0  0  0  0
  137.8483  149.5149  139.3370 C   0  0  0  0  0  0  0  0  0  0  0  0
  137.0816  149.5749  140.4415 C   0  0  0  0  0  0  0  0  0  0  0  0
  137.5247  150.0176  141.6255 C   0  0  0  0  0  0  0  0  0  0  0  0
  135.4892  151.6058  145.2677 C   0  0  0  0  0  0  0  0  0  0  0  0
  136.5468  151.0796  142.5305 C   0  0  0  0  0  0  0  0  0  0  0  0
  134.6802  152.3953  146.2519 C   0  0  0  0  0  0  0  0  0  0  0  0
  1  2  2  0
  1  3  1  0
  3  4  1  0
  4  5  2  0
  5  6  1  0
  6  7  1  0
  2  8  1  0
  8  9  2  0
  3 10  2  0
  9 10  1  0
  7 11  2  3
  6 12  2  0
 10 12  1  0
 11 13  1  0
M  END
$$$$

     RDKit          3D

 13 14  0  0  0  0  0  0  0  0999 V2000
  140.3024  150.2148  139.4796 Cl  0  0  0  0  0  0  0  0  0  0  0  0
  138.6763  150.1843  140.5310 C   0  0  0  0  0  0  0  0  0  0  0  0
  137.6367  149.3820  140.0914 C   0  0  0  0  0  0  0  0  0  0  0  0
  139.0296  150.8810  141.6190 C   0  0  0  0  0  0  0  0  0  0  0  0
  136.6556  149.6404  140.8181 C   0  0  0  0  0  0  0  0  0  0  0  0
  136.6486  150.4486  141.8740 C   0  0  0  0  0  0  0  0  0  0  0  0
  135.4283  150.7331  142.7845 C   0  0  0  0  0  0  0  0  0  0  0  0
  137.8050  151.0306  142.4471 C   0  0  0  0  0  0  0  0  0  0  0  0
  135.6546  150.8747  144.1281 C   0  0  0  0  0  0  0  0  0  0  0  0
  136.5585  151.5502  144.7332 C   0  0  0  0  0  0  0  0  0  0  0  0
  136.6225  152.0802  145.9888 C   0  0  0  0  0  0  0  0  0  0  0  0
  136.0684  151.6181  147.0050 C   0  0  0  0  0  0  0  0  0  0  0  0
  137.7932  151.8349  143.9097 C   0  0  0  0  0  0  0  0  0  0  0  0
  1  2  1  0
  2  3  2  0
  2  4  1  0
  3  5  1  0
  5  6  2  0
  6  7  1  0
  4  8  2  0
  6  8  1  0
  7  9  2  0
  9 10  1  0
 10 11  1  0
 11 12  2  0
  8 13  1  0
 10 13  2  0
M  END
$$$$

     RDKit          3D

 13 14  0  0  0  0  0  0  0  0999 V2000
  138.7091  151.1474  142.6274 C   0  0  0  0  0  0  0  0  0  0  0  0
  138.5250  151.9378  143.5111 C   0  0  0  0  0  0  0  0  0  0  0  0
  137.3909  151.8085  144.0743 C   0  0  0  0  0  0  0  0  0  0  0  0
  136.5966  150.6180  143.9743 C   0  0  0  0  0  0  0  0  0  0  0  0
  137.9826  149.9619  142.2566 C   0  0  0  0  0  0  0  0  0  0  0  0
  136.5070  152.7496  145.0872 C   0  0  0  0  0  0  0  0  0  0  0  0
  135.4505  152.3051  145.6994 C   0  0  0  0  0  0  0  0  0  0  0  0
  135.4654  150.4685  144.8143 C   0  0  0  0  0  0  0  0  0  0  0  0
  134.7549  151.2175  145.5929 C   0  0  0  0  0  0  0  0  0  0  0  0
  137.0621  149.7855  142.9941 C   0  0  0  0  0  0  0  0  0  0  0  0
  140.0457  151.3656  141.7267 O   0  0  0  0  0  0  0  0  0  0  0  0
  139.9231  150.9302  140.4593 C   0  0  0  0  0  0  0  0  0  0  0  0
  134.9012  153.5461  146.5107 C   0  0  0  0  0  0  0  0  0  0  0  0
  1  2  1  0
  2  3  2  0
  3  4  1  0
  1  5  2  0
  3  6  1  0
  6  7  1  0
  4  8  1  0
  7  9  1  0
  8  9  2  0
  4 10  2  0
  5 10  1  0
  1 11  1  0
 11 12  1  0
  7 13  1  0
M  END
$$$$

     RDKit          3D

 13 14  0  0  0  0  0  0  0  0999 V2000
  139.3429  149.9930  140.5895 C   0  0  0  0  0  0  0  0  0  0  0  0
  138.9526  149.9228  139.3665 C   0  0  0  0  0  0  0  0  0  0  0  0
  138.6128  150.1151  141.6415 C   0  0  0  0  0  0  0  0  0  0  0  0
  137.1849  149.8640  141.8304 C   0  0  0  0  0  0  0  0  0  0  0  0
  136.5144  149.7572  140.5779 C   0  0  0  0  0  0  0  0  0  0  0  0
  139.1166  150.5253  143.0849 C   0  0  0  0  0  0  0  0  0  0  0  0
  138.1694  151.0130  144.0451 C   0  0  0  0  0  0  0  0  0  0  0  0
  136.8764  150.9305  143.8065 C   0  0  0  0  0  0  0  0  0  0  0  0
  136.2844  150.2611  142.7998 C   0  0  0  0  0  0  0  0  0  0  0  0
  136.0227  151.6289  144.7126 C   0  0  0  0  0  0  0  0  0  0  0  0
  137.5137  149.6249  139.0970 C   0  0  0  0  0  0  0  0  0  0  0  0
  135.8698  152.8121  144.9967 O   0  0  0  0  0  0  0  0  0  0  0  0
  135.4782  151.0535  145.8022 O   0  0  0  0  0  0  0  0  0  0  0  0
  1  2  2  0
  1  3  1  0
  3  4  1  0
  4  5  2  0
  3  6  1  0
  6  7  2  0
  7  8  1  0
  4  9  1  0
  8  9  1  0
  8 10  1  0
  2 11  1  0
  5 11  1  0
 10 12  2  0
 10 13  1  0
M  END
$$$$

     RDKit          3D

 13 14  0  0  0  0  0  0  0  0999 V2000
  140.3024  150.2148  139.4796 Cl  0  0  0  0  0  0  0  0  0  0  0  0
  138.6763  150.1843  140.5310 C   0  0  0  0  0  0  0  0  0  0  0  0
  137.6367  149.3820  140.0914 C   0  0  0  0  0  0  0  0  0  0  0  0
  138.7469  150.9460  141.6721 C   0  0  0  0  0  0  0  0  0  0  0  0
  137.7520  150.8717  142.6252 C   0  0  0  0  0  0  0  0  0  0  0  0
  136.6300  150.0366  142.2586 C   0  0  0  0  0  0  0  0  0  0  0  0
  137.9571  151.6486  143.9853 C   0  0  0  0  0  0  0  0  0  0  0  0
  137.5450  148.8206  138.9054 C   0  0  0  0  0  0  0  0  0  0  0  0
  135.5114  150.2590  143.2608 C   0  0  0  0  0  0  0  0  0  0  0  0
  136.4351  149.4796  141.0186 C   0  0  0  0  0  0  0  0  0  0  0  0
  135.9122  151.0668  144.4135 C   0  0  0  0  0  0  0  0  0  0  0  0
  134.6892  151.2220  145.4560 C   0  0  0  0  0  0  0  0  0  0  0  0
  137.0179  151.5938  144.7260 C   0  0  0  0  0  0  0  0  0  0  0  0
  1  2  1  0
  2  3  2  0
  2  4  1  0
  4  5  2  0
  5  6  1  0
  5  7  1  0
  3  8  1  0
  6  9  1  0
  3 10  1  0
  6 10  2  0
  9 11  2  0
 11 12  1  0
  7 13  2  0
 11 13  1  0
M  END
$$$$

     RDKit          3D

 13 14  0  0  0  0  0  0  0  0999 V2000
  139.3429  149.9930  140.5895 C   0  0  0  0  0  0  0  0  0  0  0  0
  138.9526  149.9228  139.3665 C   0  0  0  0  0  0  0  0  0  0  0  0
  138.6128  150.1151  141.6415 C   0  0  0  0  0  0  0  0  0  0  0  0
  137.1849  149.8640  141.8304 C   0  0  0  0  0  0  0  0  0  0  0  0
  136.5144  149.7572  140.5779 C   0  0  0  0  0  0  0  0  0  0  0  0
  139.1166  150.5253  143.0849 C   0  0  0  0  0  0  0  0  0  0  0  0
  138.2341  151.1490  143.8701 C   0  0  0  0  0  0  0  0  0  0  0  0
  136.9087  150.9585  143.7785 C   0  0  0  0  0  0  0  0  0  0  0  0
  136.1432  151.4444  144.9802 C   0  0  0  0  0  0  0  0  0  0  0  0
  137.1435  149.6730  139.2434 C   0  0  0  0  0  0  0  0  0  0  0  0
  136.4317  151.2410  146.2723 C   0  0  0  0  0  0  0  0  0  0  0  0
  135.4205  152.5558  145.0392 C   0  0  0  0  0  0  0  0  0  0  0  0
  136.3008  150.2897  142.7874 N   0  0  0  0  0  0  0  0  0  0  0  0
  1  2  2  0
  1  3  1  0
  3  4  1  0
  4  5  2  0
  3  6  1  0
  6  7  2  0
  7  8  1  0
  8  9  1  0
  2 10  1  0
  5 10  1  0
  9 11  1  0
  9 12  1  0
  4 13  1  0
  8 13  2  0
M  END
$$$$

     RDKit          3D

 13 14  0  0  0  0  0  0  0  0999 V2000
  139.5546  150.5076  140.4455 C   0  0  0  0  0  0  0  0  0  0  0  0
  139.2164  150.0146  139.3742 C   0  0  0  0  0  0  0  0  0  0  0  0
  138.8577  150.3073  141.5866 C   0  0  0  0  0  0  0  0  0  0  0  0
  137.9802  149.2985  139.2390 C   0  0  0  0  0  0  0  0  0  0  0  0
  139.3336  150.9318  142.8840 C   0  0  0  0  0  0  0  0  0  0  0  0
  138.3135  151.4959  143.6105 C   0  0  0  0  0  0  0  0  0  0  0  0
  137.0050  151.1284  143.2688 C   0  0  0  0  0  0  0  0  0  0  0  0
  136.0278  151.6441  144.2809 C   0  0  0  0  0  0  0  0  0  0  0  0
  137.1010  149.3447  140.4158 C   0  0  0  0  0  0  0  0  0  0  0  0
  135.6799  149.0225  140.2664 C   0  0  0  0  0  0  0  0  0  0  0  0
  137.5326  149.9084  141.4880 C   0  0  0  0  0  0  0  0  0  0  0  0
  136.6724  150.2439  142.5333 N   0  0  0  0  0  0  0  0  0  0  0  0
  136.2897  152.1257  145.3004 O   0  0  0  0  0  0  0  0  0  0  0  0
  1  2  2  0
  1  3  1  0
  2  4  1  0
  3  5  1  0
  5  6  2  0
  6  7  1  0
  7  8  1  0
  4  9  2  0
  9 10  1  0
  3 11  2  0
  9 11  1  0
  7 12  2  0
 11 12  1  0
  8 13  2  0
M  END
$$$$

     RDKit          3D

 13 14  0  0  0  0  0  0  0  0999 V2000
  139.3429  149.9930  140.5895 C   0  0  0  0  0  0  0  0  0  0  0  0
  138.9526  149.9228  139.3665 C   0  0  0  0  0  0  0  0  0  0  0  0
  138.6128  150.1151  141.6415 C   0  0  0  0  0  0  0  0  0  0  0  0
  137.1849  149.8640  141.8304 C   0  0  0  0  0  0  0  0  0  0  0  0
  136.5144  149.7572  140.5779 C   0  0  0  0  0  0  0  0  0  0  0  0
  139.1166  150.5253  143.0849 C   0  0  0  0  0  0  0  0  0  0  0  0
  138.2341  151.1490  143.8701 C   0  0  0  0  0  0  0  0  0  0  0  0
  136.9087  150.9585  143.7785 C   0  0  0  0  0  0  0  0  0  0  0  0
  136.2893  150.2993  142.7352 C   0  0  0  0  0  0  0  0  0  0  0  0
  135.2463  149.4626  140.4131 C   0  0  0  0  0  0  0  0  0  0  0  0
  137.1149  149.5551  139.2378 C   0  0  0  0  0  0  0  0  0  0  0  0
  136.1695  151.6094  144.8991 C   0  0  0  0  0  0  0  0  0  0  0  0
  136.3443  151.4261  146.1899 C   0  0  0  0  0  0  0  0  0  0  0  0
  1  2  2  0
  1  3  1  0
  3  4  1  0
  4  5  2  0
  3  6  1  0
  6  7  2  0
  7  8  1  0
  4  9  1  0
  8  9  1  0
  5 10  1  0
  2 11  1  0
  5 11  1  0
  8 12  1  0
 12 13  2  0
M  END
$$$$

     RDKit          3D

 13 14  0  0  0  0  0  0  0  0999 V2000
  139.3429  149.9930  140.5895 C   0  0  0  0  0  0  0  0  0  0  0  0
  138.9526  149.9228  139.3665 C   0  0  0  0  0  0  0  0  0  0  0  0
  138.6128  150.1151  141.6415 C   0  0  0  0  0  0  0  0  0  0  0  0
  137.1849  149.8640  141.8304 C   0  0  0  0  0  0  0  0  0  0  0  0
  136.5144  149.7572  140.5779 C   0  0  0  0  0  0  0  0  0  0  0  0
  139.1166  150.5253  143.0849 C   0  0  0  0  0  0  0  0  0  0  0  0
  138.2341  151.1490  143.8701 C   0  0  0  0  0  0  0  0  0  0  0  0
  136.9087  150.9585  143.7785 C   0  0  0  0  0  0  0  0  0  0  0  0
  135.1108  149.6280  140.3918 C   0  0  0  0  0  0  0  0  0  0  0  0
  136.1195  151.4013  144.9642 C   0  0  0  0  0  0  0  0  0  0  0  0
  135.0346  152.2723  144.7824 C   0  0  0  0  0  0  0  0  0  0  0  0
  136.4173  150.0200  142.9280 C   0  0  0  0  0  0  0  0  0  0  0  0
  137.4878  149.6528  139.1625 C   0  0  0  0  0  0  0  0  0  0  0  0
  1  2  2  0
  1  3  1  0
  3  4  1  0
  4  5  2  0
  3  6  1  0
  6  7  2  0
  7  8  1  0
  5  9  1  0
  8 10  1  0
 10 11  1  0
  4 12  1  0
  8 12  1  0
  2 13  1  0
  5 13  1  0
M  END
$$$$

     RDKit          3D

 13 14  0  0  0  0  0  0  0  0999 V2000
  139.3429  149.9930  140.5895 C   0  0  0  0  0  0  0  0  0  0  0  0
  138.9526  149.9228  139.3665 C   0  0  0  0  0  0  0  0  0  0  0  0
  138.6128  150.1151  141.6415 C   0  0  0  0  0  0  0  0  0  0  0  0
  137.5731  149.8751  139.0603 C   0  0  0  0  0  0  0  0  0  0  0  0
  136.7804  149.7030  140.1442 C   0  0  0  0  0  0  0  0  0  0  0  0
  139.1254  150.3586  143.0279 C   0  0  0  0  0  0  0  0  0  0  0  0
  138.2371  150.8994  144.0334 C   0  0  0  0  0  0  0  0  0  0  0  0
  137.1231  151.2869  143.6980 C   0  0  0  0  0  0  0  0  0  0  0  0
  136.5372  151.0085  142.4173 C   0  0  0  0  0  0  0  0  0  0  0  0
  135.4957  149.4539  139.9149 O   0  0  0  0  0  0  0  0  0  0  0  0
  137.1194  150.2200  141.3851 C   0  0  0  0  0  0  0  0  0  0  0  0
  136.2453  152.0077  144.6619 C   0  0  0  0  0  0  0  0  0  0  0  0
  136.5222  153.3138  145.0502 C   0  0  0  0  0  0  0  0  0  0  0  0
  1  2  2  0
  1  3  1  0
  2  4  1  0
  4  5  2  0
  3  6  1  0
  6  7  2  0
  7  8  1  0
  8  9  2  0
  5 10  1  0
  3 11  2  0
  5 11  1  0
  9 11  1  0
  8 12  1  0
 12 13  2  0
M  END
$$$$

     RDKit          3D

 13 14  0  0  0  0  0  0  0  0999 V2000
  139.5546  150.5076  140.4455 C   0  0  0  0  0  0  0  0  0  0  0  0
  139.2164  150.0146  139.3742 C   0  0  0  0  0  0  0  0  0  0  0  0
  138.8577  150.3073  141.5866 C   0  0  0  0  0  0  0  0  0  0  0  0
  137.9802  149.2985  139.2390 C   0  0  0  0  0  0  0  0  0  0  0  0
  139.3336  150.9318  142.8840 C   0  0  0  0  0  0  0  0  0  0  0  0
  137.6155  149.8592  141.7296 C   0  0  0  0  0  0  0  0  0  0  0  0
  136.8124  149.9083  142.8503 C   0  0  0  0  0  0  0  0  0  0  0  0
  137.4191  148.7852  138.1092 C   0  0  0  0  0  0  0  0  0  0  0  0
  137.0651  150.9030  143.5436 C   0  0  0  0  0  0  0  0  0  0  0  0
  136.1826  151.3740  144.7122 C   0  0  0  0  0  0  0  0  0  0  0  0
  138.4695  151.3344  143.8424 C   0  0  0  0  0  0  0  0  0  0  0  0
  137.1216  149.1283  140.4906 C   0  0  0  0  0  0  0  0  0  0  0  0
  136.0543  152.4279  145.1700 N   0  0  0  0  0  0  0  0  0  0  0  0
  1  2  2  0
  1  3  1  0
  2  4  1  0
  3  5  1  0
  3  6  2  0
  6  7  1  0
  4  8  1  0
  7  9  2  0
  9 10  1  0
  5 11  2  0
  9 11  1  0
  4 12  2  0
  6 12  1  0
 10 13  2  0
M  END
$$$$

     RDKit          3D

 14 15  0  0  0  0  0  0  0  0999 V2000
  139.3429  149.9930  140.5895 C   0  0  0  0  0  0  0  0  0  0  0  0
  138.9526  149.9228  139.3665 C   0  0  0  0  0  0  0  0  0  0  0  0
  138.6128  150.1151  141.6415 C   0  0  0  0  0  0  0  0  0  0  0  0
  137.1849  149.8640  141.8304 C   0  0  0  0  0  0  0  0  0  0  0  0
  136.5144  149.7572  140.5779 C   0  0  0  0  0  0  0  0  0  0  0  0
  139.1166  150.5253  143.0849 C   0  0  0  0  0  0  0  0  0  0  0  0
  138.2341  151.1490  143.8701 C   0  0  0  0  0  0  0  0  0  0  0  0
  136.9087  150.9585  143.7785 C   0  0  0  0  0  0  0  0  0  0  0  0
  136.3090  150.2516  142.8052 C   0  0  0  0  0  0  0  0  0  0  0  0
  136.1259  151.5185  144.9654 C   0  0  0  0  0  0  0  0  0  0  0  0
  135.2633  152.4119  144.8707 C   0  0  0  0  0  0  0  0  0  0  0  0
  135.2393  149.5000  140.3949 C   0  0  0  0  0  0  0  0  0  0  0  0
  139.7555  149.9319  138.2229 C   0  0  0  0  0  0  0  0  0  0  0  0
  137.4172  149.6761  139.3161 C   0  0  0  0  0  0  0  0  0  0  0  0
  1  2  2  0
  1  3  1  0
  3  4  1  0
  4  5  2  0
  3  6  1  0
  6  7  2  0
  7  8  1  0
  4  9  1  0
  8  9  2  0
  8 10  1  0
 10 11  2  0
  5 12  1  0
  2 13  1  0
  2 14  1  0
  5 14  1  0
M  END
$$$$

     RDKit          3D

 14 15  0  0  0  0  0  0  0  0999 V2000
  139.5546  150.5076  140.4455 C   0  0  0  0  0  0  0  0  0  0  0  0
  139.2164  150.0146  139.3742 C   0  0  0  0  0  0  0  0  0  0  0  0
  138.8577  150.3073  141.5866 C   0  0  0  0  0  0  0  0  0  0  0  0
  139.2276  150.3508  142.8915 C   0  0  0  0  0  0  0  0  0  0  0  0
  138.3509  151.0011  143.9757 C   0  0  0  0  0  0  0  0  0  0  0  0
  137.3998  151.4284  143.6194 C   0  0  0  0  0  0  0  0  0  0  0  0
  136.5337  152.2387  144.6008 C   0  0  0  0  0  0  0  0  0  0  0  0
  137.8483  149.5149  139.3370 C   0  0  0  0  0  0  0  0  0  0  0  0
  136.9622  151.2207  142.2472 C   0  0  0  0  0  0  0  0  0  0  0  0
  137.2887  149.0194  138.2592 C   0  0  0  0  0  0  0  0  0  0  0  0
  135.3409  151.7288  145.0593 C   0  0  0  0  0  0  0  0  0  0  0  0
  137.4781  150.5084  141.3339 C   0  0  0  0  0  0  0  0  0  0  0  0
  137.0398  149.9828  140.4018 C   0  0  0  0  0  0  0  0  0  0  0  0
  137.1062  153.0932  145.1664 O   0  0  0  0  0  0  0  0  0  0  0  0
  1  2  2  0
  1  3  1  0
  3  4  1  0
  4  5  2  0
  5  6  1  0
  6  7  1  0
  2  8  1  0
  6  9  2  0
  8 10  1  0
  7 11  1  0
  3 12  2  0
  9 12  1  0
  8 13  2  0
 12 13  1  0
  7 14  2  0
M  END
$$$$

     RDKit          3D

 14 15  0  0  0  0  0  0  0  0999 V2000
  139.3429  149.9930  140.5895 C   0  0  0  0  0  0  0  0  0  0  0  0
  138.9526  149.9228  139.3665 C   0  0  0  0  0  0  0  0  0  0  0  0
  138.6128  150.1151  141.6415 C   0  0  0  0  0  0  0  0  0  0  0  0
  137.5731  149.8751  139.0603 C   0  0  0  0  0  0  0  0  0  0  0  0
  137.0927  149.4986  137.8152 C   0  0  0  0  0  0  0  0  0  0  0  0
  139.0049  150.5465  142.9880 C   0  0  0  0  0  0  0  0  0  0  0  0
  138.1933  151.3789  143.6837 C   0  0  0  0  0  0  0  0  0  0  0  0
  136.9028  151.4680  143.1554 C   0  0  0  0  0  0  0  0  0  0  0  0
  136.7362  150.0347  140.2659 C   0  0  0  0  0  0  0  0  0  0  0  0
  136.0023  152.2339  143.9991 C   0  0  0  0  0  0  0  0  0  0  0  0
  135.1075  151.5487  144.8190 C   0  0  0  0  0  0  0  0  0  0  0  0
  137.1481  150.2143  141.4357 C   0  0  0  0  0  0  0  0  0  0  0  0
  136.3126  150.6769  142.4113 C   0  0  0  0  0  0  0  0  0  0  0  0
  134.3131  152.3888  145.8126 C   0  0  0  0  0  0  0  0  0  0  0  0
  1  2  2  0
  1  3  1  0
  2  4  1  0
  4  5  1  0
  3  6  1  0
  6  7  2  0
  7  8  1  0
  4  9  2  0
  8 10  1  0
 10 11  2  3
  3 12  2  0
  9 12  1  0
  8 13  2  0
 12 13  1  0
 11 14  1  0
M  END
$$$$

     RDKit          3D

 14 15  0  0  0  0  0  0  0  0999 V2000
  139.5546  150.5076  140.4455 C   0  0  0  0  0  0  0  0  0  0  0  0
  139.2164  150.0146  139.3742 C   0  0  0  0  0  0  0  0  0  0  0  0
  138.8577  150.3073  141.5866 C   0  0  0  0  0  0  0  0  0  0  0  0
  139.2276  150.3508  142.8915 C   0  0  0  0  0  0  0  0  0  0  0  0
  138.5491  151.2697  143.6827 C   0  0  0  0  0  0  0  0  0  0  0  0
  137.8571  149.4543  139.3226 C   0  0  0  0  0  0  0  0  0  0  0  0
  137.4559  150.0376  141.2281 C   0  0  0  0  0  0  0  0  0  0  0  0
  136.5010  150.2989  142.4542 C   0  0  0  0  0  0  0  0  0  0  0  0
  137.0173  151.0912  143.5205 C   0  0  0  0  0  0  0  0  0  0  0  0
  136.1793  151.7200  144.4687 C   0  0  0  0  0  0  0  0  0  0  0  0
  137.4744  148.9137  138.0215 C   0  0  0  0  0  0  0  0  0  0  0  0
  135.2124  151.0786  145.1206 C   0  0  0  0  0  0  0  0  0  0  0  0
  134.3492  151.7066  146.1388 C   0  0  0  0  0  0  0  0  0  0  0  0
  136.9568  149.6628  140.3392 N   0  0  0  0  0  0  0  0  0  0  0  0
  1  2  2  0
  1  3  1  0
  3  4  1  0
  4  5  2  0
  2  6  1  0
  3  7  2  0
  7  8  1  0
  5  9  1  0
  8  9  2  0
  9 10  1  0
  6 11  1  0
 10 12  2  3
 12 13  1  0
  6 14  2  0
  7 14  1  0
M  END
$$$$

     RDKit          3D

 14 15  0  0  0  0  0  0  0  0999 V2000
  139.5546  150.5076  140.4455 C   0  0  0  0  0  0  0  0  0  0  0  0
  139.2164  150.0146  139.3742 C   0  0  0  0  0  0  0  0  0  0  0  0
  138.8577  150.3073  141.5866 C   0  0  0  0  0  0  0  0  0  0  0  0
  139.2276  150.3508  142.8915 C   0  0  0  0  0  0  0  0  0  0  0  0
  138.3509  151.0011  143.9757 C   0  0  0  0  0  0  0  0  0  0  0  0
  137.3998  151.4284  143.6194 C   0  0  0  0  0  0  0  0  0  0  0  0
  136.5337  152.2387  144.6008 C   0  0  0  0  0  0  0  0  0  0  0  0
  137.8483  149.5149  139.3370 C   0  0  0  0  0  0  0  0  0  0  0  0
  136.9622  151.2207  142.2472 C   0  0  0  0  0  0  0  0  0  0  0  0
  137.2887  149.0194  138.2592 C   0  0  0  0  0  0  0  0  0  0  0  0
  137.1487  149.7377  140.5435 C   0  0  0  0  0  0  0  0  0  0  0  0
  137.5746  150.3569  141.4670 C   0  0  0  0  0  0  0  0  0  0  0  0
  136.9396  153.4454  145.0519 C   0  0  0  0  0  0  0  0  0  0  0  0
  135.4252  151.5701  145.0751 C   0  0  0  0  0  0  0  0  0  0  0  0
  1  2  2  0
  1  3  1  0
  3  4  1  0
  4  5  2  0
  5  6  1  0
  6  7  1  0
  2  8  1  0
  6  9  2  0
  8 10  1  0
  8 11  2  0
  3 12  2  0
  9 12  1  0
 11 12  1  0
  7 13  2  0
  7 14  1  0
M  END
$$$$

     RDKit          3D

 14 15  0  0  0  0  0  0  0  0999 V2000
  139.3429  149.9930  140.5895 C   0  0  0  0  0  0  0  0  0  0  0  0
  138.9526  149.9228  139.3665 C   0  0  0  0  0  0  0  0  0  0  0  0
  138.6128  150.1151  141.6415 C   0  0  0  0  0  0  0  0  0  0  0  0
  137.1849  149.8640  141.8304 C   0  0  0  0  0  0  0  0  0  0  0  0
  136.5144  149.7572  140.5779 C   0  0  0  0  0  0  0  0  0  0  0  0
  139.1166  150.5253  143.0849 C   0  0  0  0  0  0  0  0  0  0  0  0
  138.2341  151.1490  143.8701 C   0  0  0  0  0  0  0  0  0  0  0  0
  136.9087  150.9585  143.7785 C   0  0  0  0  0  0  0  0  0  0  0  0
  139.8171  149.9679  138.2305 C   0  0  0  0  0  0  0  0  0  0  0  0
  136.2940  150.3278  142.7973 C   0  0  0  0  0  0  0  0  0  0  0  0
  136.0731  151.6127  145.0642 C   0  0  0  0  0  0  0  0  0  0  0  0
  136.2292  151.5699  146.1893 C   0  0  0  0  0  0  0  0  0  0  0  0
  137.5022  149.6806  139.2955 C   0  0  0  0  0  0  0  0  0  0  0  0
  134.9700  152.3699  144.6445 C   0  0  0  0  0  0  0  0  0  0  0  0
  1  2  2  0
  1  3  1  0
  3  4  1  0
  4  5  2  0
  3  6  1  0
  6  7  2  0
  7  8  1  0
  2  9  1  0
  4 10  1  0
  8 10  2  0
  8 11  1  0
 11 12  1  0
  2 13  1  0
  5 13  1  0
 11 14  2  0
M  END
$$$$

     RDKit          3D

 14 15  0  0  0  0  0  0  0  0999 V2000
  139.3429  149.9930  140.5895 C   0  0  0  0  0  0  0  0  0  0  0  0
  138.9526  149.9228  139.3665 C   0  0  0  0  0  0  0  0  0  0  0  0
  138.6128  150.1151  141.6415 C   0  0  0  0  0  0  0  0  0  0  0  0
  137.1849  149.8640  141.8304 C   0  0  0  0  0  0  0  0  0  0  0  0
  136.5144  149.7572  140.5779 C   0  0  0  0  0  0  0  0  0  0  0  0
  139.1166  150.5253  143.0849 C   0  0  0  0  0  0  0  0  0  0  0  0
  138.2341  151.1490  143.8701 C   0  0  0  0  0  0  0  0  0  0  0  0
  136.9087  150.9585  143.7785 C   0  0  0  0  0  0  0  0  0  0  0  0
  135.1108  149.6280  140.3918 C   0  0  0  0  0  0  0  0  0  0  0  0
  139.6678  149.8930  138.1749 C   0  0  0  0  0  0  0  0  0  0  0  0
  136.1170  151.4113  144.9631 C   0  0  0  0  0  0  0  0  0  0  0  0
  137.3727  149.7160  139.3061 C   0  0  0  0  0  0  0  0  0  0  0  0
  136.3642  150.2560  142.7457 N   0  0  0  0  0  0  0  0  0  0  0  0
  135.2174  152.3211  144.7816 C   0  0  0  0  0  0  0  0  0  0  0  0
  1  2  2  0
  1  3  1  0
  3  4  1  0
  4  5  2  0
  3  6  1  0
  6  7  2  0
  7  8  1  0
  5  9  1  0
  2 10  1  0
  8 11  1  0
  2 12  1  0
  5 12  1  0
  4 13  1  0
  8 13  2  0
 11 14  1  0
M  END
$$$$

     RDKit          3D

 14 15  0  0  0  0  0  0  0  0999 V2000
  139.3429  149.9930  140.5895 C   0  0  0  0  0  0  0  0  0  0  0  0
  138.9526  149.9228  139.3665 C   0  0  0  0  0  0  0  0  0  0  0  0
  138.6128  150.1151  141.6415 C   0  0  0  0  0  0  0  0  0  0  0  0
  137.1849  149.8640  141.8304 C   0  0  0  0  0  0  0  0  0  0  0  0
  136.5144  149.7572  140.5779 C   0  0  0  0  0  0  0  0  0  0  0  0
  139.1166  150.5253  143.0849 C   0  0  0  0  0  0  0  0  0  0  0  0
  138.2341  151.1490  143.8701 C   0  0  0  0  0  0  0  0  0  0  0  0
  136.9087  150.9585  143.7785 C   0  0  0  0  0  0  0  0  0  0  0  0
  136.2893  150.2993  142.7352 C   0  0  0  0  0  0  0  0  0  0  0  0
  139.7666  149.9662  138.2170 C   0  0  0  0  0  0  0  0  0  0  0  0
  137.4988  149.6931  139.3034 C   0  0  0  0  0  0  0  0  0  0  0  0
  136.1259  151.5887  144.8507 C   0  0  0  0  0  0  0  0  0  0  0  0
  135.4106  152.5257  144.8654 O   0  0  0  0  0  0  0  0  0  0  0  0
  136.2955  150.9923  146.1217 C   0  0  0  0  0  0  0  0  0  0  0  0
  1  2  2  0
  1  3  1  0
  3  4  1  0
  4  5  2  0
  3  6  1  0
  6  7  2  0
  7  8  1  0
  4  9  1  0
  8  9  1  0
  2 10  1  0
  2 11  1  0
  5 11  1  0
  8 12  1  0
 12 13  2  0
 12 14  1  0
M  END
$$$$

     RDKit          3D

 14 15  0  0  0  0  0  0  0  0999 V2000
  139.3429  149.9930  140.5895 C   0  0  0  0  0  0  0  0  0  0  0  0
  138.9526  149.9228  139.3665 C   0  0  0  0  0  0  0  0  0  0  0  0
  138.6128  150.1151  141.6415 C   0  0  0  0  0  0  0  0  0  0  0  0
  137.1849  149.8640  141.8304 C   0  0  0  0  0  0  0  0  0  0  0  0
  136.5144  149.7572  140.5779 C   0  0  0  0  0  0  0  0  0  0  0  0
  139.1889  150.4046  143.0744 C   0  0  0  0  0  0  0  0  0  0  0  0
  138.2456  150.9517  144.0738 C   0  0  0  0  0  0  0  0  0  0  0  0
  137.3804  149.6889  139.2512 C   0  0  0  0  0  0  0  0  0  0  0  0
  137.1687  151.4355  144.0021 C   0  0  0  0  0  0  0  0  0  0  0  0
  136.3391  150.5369  142.8038 C   0  0  0  0  0  0  0  0  0  0  0  0
  136.2872  152.0111  144.8911 C   0  0  0  0  0  0  0  0  0  0  0  0
  135.1733  151.4978  145.4346 C   0  0  0  0  0  0  0  0  0  0  0  0
  134.7283  150.1841  145.3197 C   0  0  0  0  0  0  0  0  0  0  0  0
  134.6621  152.5900  146.3977 C   0  0  0  0  0  0  0  0  0  0  0  0
  1  2  2  0
  1  3  1  0
  3  4  1  0
  4  5  2  0
  3  6  1  0
  6  7  2  0
  2  8  1  0
  5  8  1  0
  7  9  1  0
  4 10  1  0
  9 10  2  0
  9 11  1  0
 11 12  2  3
 12 13  1  0
 12 14  1  0
M  END
$$$$

     RDKit          3D

 14 15  0  0  0  0  0  0  0  0999 V2000
  139.5546  150.5076  140.4455 C   0  0  0  0  0  0  0  0  0  0  0  0
  139.2164  150.0146  139.3742 C   0  0  0  0  0  0  0  0  0  0  0  0
  138.8577  150.3073  141.5866 C   0  0  0  0  0  0  0  0  0  0  0  0
  139.2276  150.3508  142.8915 C   0  0  0  0  0  0  0  0  0  0  0  0
  138.3509  151.0011  143.9757 C   0  0  0  0  0  0  0  0  0  0  0  0
  137.3998  151.4284  143.6194 C   0  0  0  0  0  0  0  0  0  0  0  0
  136.5337  152.2387  144.6008 C   0  0  0  0  0  0  0  0  0  0  0  0
  137.8483  149.5149  139.3370 C   0  0  0  0  0  0  0  0  0  0  0  0
  136.9622  151.2207  142.2472 C   0  0  0  0  0  0  0  0  0  0  0  0
  135.3288  151.7446  145.0390 C   0  0  0  0  0  0  0  0  0  0  0  0
  136.8277  153.2377  144.9813 O   0  0  0  0  0  0  0  0  0  0  0  0
  137.2881  149.0176  138.2460 C   0  0  0  0  0  0  0  0  0  0  0  0
  137.1454  149.7790  140.5603 C   0  0  0  0  0  0  0  0  0  0  0  0
  137.4982  150.4707  141.5352 C   0  0  0  0  0  0  0  0  0  0  0  0
  1  2  2  0
  1  3  1  0
  3  4  1  0
  4  5  2  0
  5  6  1  0
  6  7  1  0
  2  8  1  0
  6  9  2  0
  7 10  1  0
  7 11  2  0
  8 12  2  0
  8 13  1  0
  3 14  1  0
  9 14  1  0
 13 14  2  0
M  END
$$$$

     RDKit          3D

 14 15  0  0  0  0  0  0  0  0999 V2000
  139.5546  150.5076  140.4455 C   0  0  0  0  0  0  0  0  0  0  0  0
  139.2164  150.0146  139.3742 C   0  0  0  0  0  0  0  0  0  0  0  0
  138.8577  150.3073  141.5866 C   0  0  0  0  0  0  0  0  0  0  0  0
  139.2276  150.3508  142.8915 C   0  0  0  0  0  0  0  0  0  0  0  0
  138.3509  151.0011  143.9757 C   0  0  0  0  0  0  0  0  0  0  0  0
  137.3998  151.4284  143.6194 C   0  0  0  0  0  0  0  0  0  0  0  0
  136.5337  152.2387  144.6008 C   0  0  0  0  0  0  0  0  0  0  0  0
  137.8483  149.5149  139.3370 C   0  0  0  0  0  0  0  0  0  0  0  0
  136.9622  151.2207  142.2472 C   0  0  0  0  0  0  0  0  0  0  0  0
  136.9948  153.3614  145.1455 C   0  0  0  0  0  0  0  0  0  0  0  0
  137.2939  149.0083  138.2505 C   0  0  0  0  0  0  0  0  0  0  0  0
  137.6640  150.5140  141.4716 C   0  0  0  0  0  0  0  0  0  0  0  0
  137.0420  149.9841  140.3927 N   0  0  0  0  0  0  0  0  0  0  0  0
  135.3446  151.6331  144.9604 C   0  0  0  0  0  0  0  0  0  0  0  0
  1  2  2  0
  1  3  1  0
  3  4  1  0
  4  5  2  0
  5  6  1  0
  6  7  1  0
  2  8  1  0
  6  9  2  0
  7 10  2  0
  8 11  1  0
  3 12  2  0
  9 12  1  0
  8 13  2  0
 12 13  1  0
  7 14  1  0
M  END
$$$$

     RDKit          3D

 14 15  0  0  0  0  0  0  0  0999 V2000
  139.5546  150.5076  140.4455 C   0  0  0  0  0  0  0  0  0  0  0  0
  139.2164  150.0146  139.3742 C   0  0  0  0  0  0  0  0  0  0  0  0
  138.8577  150.3073  141.5866 C   0  0  0  0  0  0  0  0  0  0  0  0
  139.2276  150.3508  142.8915 C   0  0  0  0  0  0  0  0  0  0  0  0
  138.3509  151.0011  143.9757 C   0  0  0  0  0  0  0  0  0  0  0  0
  137.3998  151.4284  143.6194 C   0  0  0  0  0  0  0  0  0  0  0  0
  136.5337  152.2387  144.6008 C   0  0  0  0  0  0  0  0  0  0  0  0
  137.8483  149.5149  139.3370 C   0  0  0  0  0  0  0  0  0  0  0  0
  136.9622  151.2207  142.2472 C   0  0  0  0  0  0  0  0  0  0  0  0
  135.3288  151.7446  145.0390 C   0  0  0  0  0  0  0  0  0  0  0  0
  136.8277  153.2377  144.9813 O   0  0  0  0  0  0  0  0  0  0  0  0
  137.2881  149.0176  138.2460 C   0  0  0  0  0  0  0  0  0  0  0  0
  137.4627  150.5527  141.4224 C   0  0  0  0  0  0  0  0  0  0  0  0
  136.6933  150.0591  140.4001 C   0  0  0  0  0  0  0  0  0  0  0  0
  1  2  2  0
  1  3  1  0
  3  4  1  0
  4  5  2  0
  5  6  1  0
  6  7  1  0
  2  8  1  0
  6  9  2  0
  7 10  1  0
  7 11  2  0
  8 12  2  0
  3 13  2  0
  9 13  1  0
  8 14  1  0
 13 14  1  0
M  END
$$$$

     RDKit          3D

 14 15  0  0  0  0  0  0  0  0999 V2000
  139.5546  150.5076  140.4455 C   0  0  0  0  0  0  0  0  0  0  0  0
  139.2164  150.0146  139.3742 C   0  0  0  0  0  0  0  0  0  0  0  0
  138.8577  150.3073  141.5866 C   0  0  0  0  0  0  0  0  0  0  0  0
  137.9802  149.2985  139.2390 C   0  0  0  0  0  0  0  0  0  0  0  0
  139.3336  150.9318  142.8840 C   0  0  0  0  0  0  0  0  0  0  0  0
  138.3135  151.4959  143.6105 C   0  0  0  0  0  0  0  0  0  0  0  0
  137.0050  151.1284  143.2688 C   0  0  0  0  0  0  0  0  0  0  0  0
  136.0278  151.6441  144.2809 C   0  0  0  0  0  0  0  0  0  0  0  0
  137.1010  149.3447  140.4158 C   0  0  0  0  0  0  0  0  0  0  0  0
  135.6799  149.0225  140.2664 C   0  0  0  0  0  0  0  0  0  0  0  0
  136.1500  152.6376  144.9672 C   0  0  0  0  0  0  0  0  0  0  0  0
  137.5263  149.8943  141.4691 C   0  0  0  0  0  0  0  0  0  0  0  0
  136.8433  150.2033  142.3827 N   0  0  0  0  0  0  0  0  0  0  0  0
  135.2241  152.9872  146.0504 C   0  0  0  0  0  0  0  0  0  0  0  0
  1  2  2  0
  1  3  1  0
  2  4  1  0
  3  5  1  0
  5  6  2  0
  6  7  1  0
  7  8  1  0
  4  9  2  0
  9 10  1  0
  8 11  1  0
  3 12  2  0
  9 12  1  0
  7 13  2  0
 12 13  1  0
 11 14  1  0
M  END
$$$$

     RDKit          3D

 14 15  0  0  0  0  0  0  0  0999 V2000
  139.3429  149.9930  140.5895 C   0  0  0  0  0  0  0  0  0  0  0  0
  138.9526  149.9228  139.3665 C   0  0  0  0  0  0  0  0  0  0  0  0
  138.6128  150.1151  141.6415 C   0  0  0  0  0  0  0  0  0  0  0  0
  137.1849  149.8640  141.8304 C   0  0  0  0  0  0  0  0  0  0  0  0
  136.5144  149.7572  140.5779 C   0  0  0  0  0  0  0  0  0  0  0  0
  139.1889  150.4046  143.0744 C   0  0  0  0  0  0  0  0  0  0  0  0
  138.2456  150.9517  144.0738 C   0  0  0  0  0  0  0  0  0  0  0  0
  136.7330  150.3979  143.0627 C   0  0  0  0  0  0  0  0  0  0  0  0
  139.6909  149.9363  138.1839 C   0  0  0  0  0  0  0  0  0  0  0  0
  137.1396  150.7734  144.1153 C   0  0  0  0  0  0  0  0  0  0  0  0
  136.3009  151.2990  145.2033 C   0  0  0  0  0  0  0  0  0  0  0  0
  136.5036  151.4058  146.4397 O   0  0  0  0  0  0  0  0  0  0  0  0
  135.1766  149.5298  140.5018 C   0  0  0  0  0  0  0  0  0  0  0  0
  137.4353  149.6496  139.3184 C   0  0  0  0  0  0  0  0  0  0  0  0
  1  2  2  0
  1  3  1  0
  3  4  1  0
  4  5  2  0
  3  6  1  0
  6  7  2  0
  4  8  1  0
  2  9  1  0
  7 10  1  0
  8 10  2  0
 10 11  1  0
 11 12  2  0
  5 13  1  0
  2 14  1  0
  5 14  1  0
M  END
$$$$

     RDKit          3D

 14 15  0  0  0  0  0  0  0  0999 V2000
  139.3429  149.9930  140.5895 C   0  0  0  0  0  0  0  0  0  0  0  0
  138.9526  149.9228  139.3665 C   0  0  0  0  0  0  0  0  0  0  0  0
  138.6128  150.1151  141.6415 C   0  0  0  0  0  0  0  0  0  0  0  0
  137.1849  149.8640  141.8304 C   0  0  0  0  0  0  0  0  0  0  0  0
  136.5144  149.7572  140.5779 C   0  0  0  0  0  0  0  0  0  0  0  0
  139.1166  150.5253  143.0849 C   0  0  0  0  0  0  0  0  0  0  0  0
  138.1694  151.0130  144.0451 C   0  0  0  0  0  0  0  0  0  0  0  0
  136.8764  150.9305  143.8065 C   0  0  0  0  0  0  0  0  0  0  0  0
  136.2844  150.2611  142.7998 C   0  0  0  0  0  0  0  0  0  0  0  0
  136.0227  151.6289  144.7126 C   0  0  0  0  0  0  0  0  0  0  0  0
  139.7632  149.9380  138.2185 C   0  0  0  0  0  0  0  0  0  0  0  0
  135.8854  152.7478  145.0573 O   0  0  0  0  0  0  0  0  0  0  0  0
  137.4433  149.7027  139.3302 C   0  0  0  0  0  0  0  0  0  0  0  0
  135.4563  151.0314  145.7541 O   0  0  0  0  0  0  0  0  0  0  0  0
  1  2  2  0
  1  3  1  0
  3  4  1  0
  4  5  2  0
  3  6  1  0
  6  7  2  0
  7  8  1  0
  4  9  1  0
  8  9  1  0
  8 10  1  0
  2 11  1  0
 10 12  2  0
  2 13  1  0
  5 13  1  0
 10 14  1  0
M  END
$$$$

     RDKit          3D

 14 15  0  0  0  0  0  0  0  0999 V2000
  139.3429  149.9930  140.5895 C   0  0  0  0  0  0  0  0  0  0  0  0
  138.9526  149.9228  139.3665 C   0  0  0  0  0  0  0  0  0  0  0  0
  138.6128  150.1151  141.6415 C   0  0  0  0  0  0  0  0  0  0  0  0
  137.1849  149.8640  141.8304 C   0  0  0  0  0  0  0  0  0  0  0  0
  136.5144  149.7572  140.5779 C   0  0  0  0  0  0  0  0  0  0  0  0
  139.1889  150.4046  143.0744 C   0  0  0  0  0  0  0  0  0  0  0  0
  138.2456  150.9517  144.0738 C   0  0  0  0  0  0  0  0  0  0  0  0
  139.6584  149.8786  138.1597 C   0  0  0  0  0  0  0  0  0  0  0  0
  137.0523  149.6910  139.2208 C   0  0  0  0  0  0  0  0  0  0  0  0
  136.5812  150.3293  142.9806 C   0  0  0  0  0  0  0  0  0  0  0  0
  137.0504  150.7099  144.0652 C   0  0  0  0  0  0  0  0  0  0  0  0
  136.1422  150.9897  145.3529 C   0  0  0  0  0  0  0  0  0  0  0  0
  135.1679  151.9852  145.1581 C   0  0  0  0  0  0  0  0  0  0  0  0
  135.3111  153.0428  146.0806 C   0  0  0  0  0  0  0  0  0  0  0  0
  1  2  2  0
  1  3  1  0
  3  4  1  0
  4  5  2  0
  3  6  1  0
  6  7  2  0
  2  8  1  0
  2  9  1  0
  5  9  1  0
  4 10  1  0
  7 11  1  0
 10 11  2  0
 11 12  1  0
 12 13  1  0
 13 14  1  0
M  END
$$$$

     RDKit          3D

 14 15  0  0  0  0  0  0  0  0999 V2000
  139.5546  150.5076  140.4455 C   0  0  0  0  0  0  0  0  0  0  0  0
  139.2164  150.0146  139.3742 C   0  0  0  0  0  0  0  0  0  0  0  0
  138.8577  150.3073  141.5866 C   0  0  0  0  0  0  0  0  0  0  0  0
  139.2276  150.3508  142.8915 C   0  0  0  0  0  0  0  0  0  0  0  0
  138.3509  151.0011  143.9757 C   0  0  0  0  0  0  0  0  0  0  0  0
  137.3998  151.4284  143.6194 C   0  0  0  0  0  0  0  0  0  0  0  0
  136.5337  152.2387  144.6008 C   0  0  0  0  0  0  0  0  0  0  0  0
  137.8483  149.5149  139.3370 C   0  0  0  0  0  0  0  0  0  0  0  0
  137.0816  149.5749  140.4415 C   0  0  0  0  0  0  0  0  0  0  0  0
  137.5247  150.0176  141.6255 C   0  0  0  0  0  0  0  0  0  0  0  0
  135.4892  151.6058  145.2677 C   0  0  0  0  0  0  0  0  0  0  0  0
  136.6666  150.6842  142.6078 C   0  0  0  0  0  0  0  0  0  0  0  0
  136.8680  153.4889  144.8075 C   0  0  0  0  0  0  0  0  0  0  0  0
  134.7047  152.4937  146.1151 C   0  0  0  0  0  0  0  0  0  0  0  0
  1  2  2  0
  1  3  1  0
  3  4  1  0
  4  5  2  0
  5  6  1  0
  6  7  1  0
  2  8  1  0
  8  9  2  0
  3 10  2  0
  9 10  1  0
  7 11  2  3
  6 12  2  0
 10 12  1  0
  7 13  1  0
 11 14  1  0
M  END
$$$$

     RDKit          3D

 14 15  0  0  0  0  0  0  0  0999 V2000
  139.3429  149.9930  140.5895 C   0  0  0  0  0  0  0  0  0  0  0  0
  138.9526  149.9228  139.3665 C   0  0  0  0  0  0  0  0  0  0  0  0
  138.6128  150.1151  141.6415 C   0  0  0  0  0  0  0  0  0  0  0  0
  137.1849  149.8640  141.8304 C   0  0  0  0  0  0  0  0  0  0  0  0
  136.5144  149.7572  140.5779 C   0  0  0  0  0  0  0  0  0  0  0  0
  139.1166  150.5253  143.0849 C   0  0  0  0  0  0  0  0  0  0  0  0
  138.2341  151.1490  143.8701 C   0  0  0  0  0  0  0  0  0  0  0  0
  136.9087  150.9585  143.7785 C   0  0  0  0  0  0  0  0  0  0  0  0
  139.8171  149.9679  138.2305 C   0  0  0  0  0  0  0  0  0  0  0  0
  136.1345  151.4467  144.9802 C   0  0  0  0  0  0  0  0  0  0  0  0
  135.0787  149.6015  140.5299 C   0  0  0  0  0  0  0  0  0  0  0  0
  137.3112  149.7148  139.2766 C   0  0  0  0  0  0  0  0  0  0  0  0
  136.3500  150.2452  142.7561 N   0  0  0  0  0  0  0  0  0  0  0  0
  136.4631  151.5274  146.1618 C   0  0  0  0  0  0  0  0  0  0  0  0
  1  2  2  0
  1  3  1  0
  3  4  1  0
  4  5  2  0
  3  6  1  0
  6  7  2  0
  7  8  1  0
  2  9  1  0
  8 10  1  0
  5 11  1  0
  2 12  1  0
  5 12  1  0
  4 13  1  0
  8 13  2  0
 10 14  2  0
M  END
$$$$

     RDKit          3D

 14 15  0  0  0  0  0  0  0  0999 V2000
  139.5546  150.5076  140.4455 C   0  0  0  0  0  0  0  0  0  0  0  0
  139.2164  150.0146  139.3742 C   0  0  0  0  0  0  0  0  0  0  0  0
  138.8577  150.3073  141.5866 C   0  0  0  0  0  0  0  0  0  0  0  0
  139.2276  150.3508  142.8915 C   0  0  0  0  0  0  0  0  0  0  0  0
  138.5491  151.2697  143.6827 C   0  0  0  0  0  0  0  0  0  0  0  0
  137.8571  149.4543  139.3226 C   0  0  0  0  0  0  0  0  0  0  0  0
  137.4457  151.5292  143.4243 C   0  0  0  0  0  0  0  0  0  0  0  0
  137.0553  149.6488  140.3767 C   0  0  0  0  0  0  0  0  0  0  0  0
  136.5969  152.3859  144.3608 C   0  0  0  0  0  0  0  0  0  0  0  0
  135.5384  149.4618  140.2000 C   0  0  0  0  0  0  0  0  0  0  0  0
  137.5255  150.1431  141.5498 C   0  0  0  0  0  0  0  0  0  0  0  0
  135.4947  151.8511  145.0293 C   0  0  0  0  0  0  0  0  0  0  0  0
  135.3330  152.2867  146.3070 C   0  0  0  0  0  0  0  0  0  0  0  0
  136.7645  150.7659  142.5272 N   0  0  0  0  0  0  0  0  0  0  0  0
  1  2  2  0
  1  3  1  0
  3  4  1  0
  4  5  2  0
  2  6  1  0
  5  7  1  0
  6  8  2  0
  7  9  1  0
  8 10  1  0
  3 11  2  0
  8 11  1  0
  9 12  2  3
 12 13  1  0
  7 14  2  0
 11 14  1  0
M  END
$$$$

     RDKit          3D

 14 15  0  0  0  0  0  0  0  0999 V2000
  139.3429  149.9930  140.5895 C   0  0  0  0  0  0  0  0  0  0  0  0
  138.9526  149.9228  139.3665 C   0  0  0  0  0  0  0  0  0  0  0  0
  138.6128  150.1151  141.6415 C   0  0  0  0  0  0  0  0  0  0  0  0
  137.1849  149.8640  141.8304 C   0  0  0  0  0  0  0  0  0  0  0  0
  136.5144  149.7572  140.5779 C   0  0  0  0  0  0  0  0  0  0  0  0
  139.1166  150.5253  143.0849 C   0  0  0  0  0  0  0  0  0  0  0  0
  138.2341  151.1490  143.8701 C   0  0  0  0  0  0  0  0  0  0  0  0
  136.9087  150.9585  143.7785 C   0  0  0  0  0  0  0  0  0  0  0  0
  139.8171  149.9679  138.2305 C   0  0  0  0  0  0  0  0  0  0  0  0
  136.1345  151.4467  144.9802 C   0  0  0  0  0  0  0  0  0  0  0  0
  135.0787  149.6015  140.5299 C   0  0  0  0  0  0  0  0  0  0  0  0
  135.0196  152.2617  144.7754 C   0  0  0  0  0  0  0  0  0  0  0  0
  136.4167  150.1083  142.9372 C   0  0  0  0  0  0  0  0  0  0  0  0
  137.3226  149.6017  139.3849 C   0  0  0  0  0  0  0  0  0  0  0  0
  1  2  2  0
  1  3  1  0
  3  4  1  0
  4  5  2  0
  3  6  1  0
  6  7  2  0
  7  8  1  0
  2  9  1  0
  8 10  1  0
  5 11  1  0
 10 12  1  0
  4 13  1  0
  8 13  2  0
  2 14  1  0
  5 14  1  0
M  END
$$$$

     RDKit          3D

 14 15  0  0  0  0  0  0  0  0999 V2000
  139.3429  149.9930  140.5895 C   0  0  0  0  0  0  0  0  0  0  0  0
  138.9526  149.9228  139.3665 C   0  0  0  0  0  0  0  0  0  0  0  0
  138.6128  150.1151  141.6415 C   0  0  0  0  0  0  0  0  0  0  0  0
  137.1849  149.8640  141.8304 C   0  0  0  0  0  0  0  0  0  0  0  0
  136.5144  149.7572  140.5779 C   0  0  0  0  0  0  0  0  0  0  0  0
  139.1889  150.4046  143.0744 C   0  0  0  0  0  0  0  0  0  0  0  0
  138.2456  150.9517  144.0738 C   0  0  0  0  0  0  0  0  0  0  0  0
  139.6584  149.8786  138.1597 C   0  0  0  0  0  0  0  0  0  0  0  0
  136.9428  150.9175  143.8530 C   0  0  0  0  0  0  0  0  0  0  0  0
  136.3051  150.2968  142.8067 C   0  0  0  0  0  0  0  0  0  0  0  0
  136.1534  151.4322  145.0667 C   0  0  0  0  0  0  0  0  0  0  0  0
  136.5579  151.6324  146.2697 C   0  0  0  0  0  0  0  0  0  0  0  0
  135.2527  152.2455  144.8260 C   0  0  0  0  0  0  0  0  0  0  0  0
  137.2745  149.6704  139.2520 C   0  0  0  0  0  0  0  0  0  0  0  0
  1  2  2  0
  1  3  1  0
  3  4  1  0
  4  5  2  0
  3  6  1  0
  6  7  2  0
  2  8  1  0
  7  9  1  0
  4 10  1  0
  9 10  2  0
  9 11  1  0
 11 12  1  0
 11 13  1  0
  2 14  1  0
  5 14  1  0
M  END
$$$$

     RDKit          3D

 14 15  0  0  0  0  0  0  0  0999 V2000
  139.3429  149.9930  140.5895 C   0  0  0  0  0  0  0  0  0  0  0  0
  138.9526  149.9228  139.3665 C   0  0  0  0  0  0  0  0  0  0  0  0
  138.6128  150.1151  141.6415 C   0  0  0  0  0  0  0  0  0  0  0  0
  137.1849  149.8640  141.8304 C   0  0  0  0  0  0  0  0  0  0  0  0
  136.5144  149.7572  140.5779 C   0  0  0  0  0  0  0  0  0  0  0  0
  139.1166  150.5253  143.0849 C   0  0  0  0  0  0  0  0  0  0  0  0
  138.2341  151.1490  143.8701 C   0  0  0  0  0  0  0  0  0  0  0  0
  136.9087  150.9585  143.7785 C   0  0  0  0  0  0  0  0  0  0  0  0
  135.1108  149.6280  140.3918 C   0  0  0  0  0  0  0  0  0  0  0  0
  136.1195  151.4013  144.9642 C   0  0  0  0  0  0  0  0  0  0  0  0
  136.4276  150.2037  142.9060 C   0  0  0  0  0  0  0  0  0  0  0  0
  136.4077  151.3923  146.2159 C   0  0  0  0  0  0  0  0  0  0  0  0
  137.4478  149.6778  139.3477 C   0  0  0  0  0  0  0  0  0  0  0  0
  135.3001  152.3866  144.8396 C   0  0  0  0  0  0  0  0  0  0  0  0
  1  2  2  0
  1  3  1  0
  3  4  1  0
  4  5  2  0
  3  6  1  0
  6  7  2  0
  7  8  1  0
  5  9  1  0
  8 10  1  0
  4 11  1  0
  8 11  2  0
 10 12  1  0
  2 13  1  0
  5 13  1  0
 10 14  1  0
M  END
$$$$

     RDKit          3D

 14 15  0  0  0  0  0  0  0  0999 V2000
  139.0001  149.7643  140.3654 C   0  0  0  0  0  0  0  0  0  0  0  0
  138.7141  149.5451  139.1252 C   0  0  0  0  0  0  0  0  0  0  0  0
  138.1592  150.0995  141.2821 C   0  0  0  0  0  0  0  0  0  0  0  0
  137.3238  149.5788  138.6759 C   0  0  0  0  0  0  0  0  0  0  0  0
  136.7102  150.0158  141.0157 C   0  0  0  0  0  0  0  0  0  0  0  0
  135.7301  150.2148  142.0235 C   0  0  0  0  0  0  0  0  0  0  0  0
  136.2830  149.7058  139.6593 C   0  0  0  0  0  0  0  0  0  0  0  0
  136.3071  150.9999  143.1309 C   0  0  0  0  0  0  0  0  0  0  0  0
  138.5250  150.4950  142.6793 C   0  0  0  0  0  0  0  0  0  0  0  0
  135.2765  151.5053  144.1696 C   0  0  0  0  0  0  0  0  0  0  0  0
  137.6295  151.0010  143.5955 C   0  0  0  0  0  0  0  0  0  0  0  0
  134.9891  151.0384  145.2230 C   0  0  0  0  0  0  0  0  0  0  0  0
  135.8996  150.4346  146.0489 C   0  0  0  0  0  0  0  0  0  0  0  0
  134.4837  152.3502  146.2709 C   0  0  0  0  0  0  0  0  0  0  0  0
  1  2  2  0
  1  3  1  0
  2  4  1  0
  3  5  2  0
  5  6  1  0
  4  7  2  0
  5  7  1  0
  6  8  2  0
  3  9  1  0
  8 10  1  0
  8 11  1  0
  9 11  2  0
 10 12  1  0
 12 13  1  0
 12 14  1  0
M  END
$$$$

     RDKit          3D

 14 15  0  0  0  0  0  0  0  0999 V2000
  139.5546  150.5076  140.4455 C   0  0  0  0  0  0  0  0  0  0  0  0
  139.2164  150.0146  139.3742 C   0  0  0  0  0  0  0  0  0  0  0  0
  138.8577  150.3073  141.5866 C   0  0  0  0  0  0  0  0  0  0  0  0
  137.9802  149.2985  139.2390 C   0  0  0  0  0  0  0  0  0  0  0  0
  139.3336  150.9318  142.8840 C   0  0  0  0  0  0  0  0  0  0  0  0
  137.6155  149.8592  141.7296 C   0  0  0  0  0  0  0  0  0  0  0  0
  136.8124  149.9083  142.8503 C   0  0  0  0  0  0  0  0  0  0  0  0
  137.4191  148.7852  138.1092 C   0  0  0  0  0  0  0  0  0  0  0  0
  137.0651  150.9030  143.5436 C   0  0  0  0  0  0  0  0  0  0  0  0
  136.1826  151.3740  144.7122 C   0  0  0  0  0  0  0  0  0  0  0  0
  138.4805  151.3022  143.8910 C   0  0  0  0  0  0  0  0  0  0  0  0
  137.1183  149.1363  140.4869 C   0  0  0  0  0  0  0  0  0  0  0  0
  136.0675  152.5067  145.1234 C   0  0  0  0  0  0  0  0  0  0  0  0
  136.8974  153.5418  144.7899 C   0  0  0  0  0  0  0  0  0  0  0  0
  1  2  2  0
  1  3  1  0
  2  4  1  0
  3  5  1  0
  3  6  2  0
  6  7  1  0
  4  8  1  0
  7  9  2  0
  9 10  1  0
  5 11  2  0
  9 11  1  0
  4 12  2  0
  6 12  1  0
 10 13  1  0
 13 14  2  0
M  END
$$$$

     RDKit          3D

 14 15  0  0  0  0  0  0  0  0999 V2000
  139.5546  150.5076  140.4455 C   0  0  0  0  0  0  0  0  0  0  0  0
  139.2164  150.0146  139.3742 C   0  0  0  0  0  0  0  0  0  0  0  0
  138.8577  150.3073  141.5866 C   0  0  0  0  0  0  0  0  0  0  0  0
  137.9802  149.2985  139.2390 C   0  0  0  0  0  0  0  0  0  0  0  0
  139.3336  150.9318  142.8840 C   0  0  0  0  0  0  0  0  0  0  0  0
  137.6155  149.8592  141.7296 C   0  0  0  0  0  0  0  0  0  0  0  0
  136.8124  149.9083  142.8503 C   0  0  0  0  0  0  0  0  0  0  0  0
  137.4191  148.7852  138.1092 C   0  0  0  0  0  0  0  0  0  0  0  0
  137.0651  150.9030  143.5436 C   0  0  0  0  0  0  0  0  0  0  0  0
  136.1826  151.3740  144.7122 C   0  0  0  0  0  0  0  0  0  0  0  0
  138.4805  151.3022  143.8910 C   0  0  0  0  0  0  0  0  0  0  0  0
  137.0808  149.1272  140.4962 C   0  0  0  0  0  0  0  0  0  0  0  0
  136.0684  152.5098  145.1226 C   0  0  0  0  0  0  0  0  0  0  0  0
  135.0647  152.9542  146.0948 C   0  0  0  0  0  0  0  0  0  0  0  0
  1  2  2  0
  1  3  1  0
  2  4  1  0
  3  5  1  0
  3  6  2  0
  6  7  1  0
  4  8  1  0
  7  9  2  0
  9 10  1  0
  5 11  2  0
  9 11  1  0
  4 12  2  0
  6 12  1  0
 10 13  1  0
 13 14  1  0
M  END
$$$$

     RDKit          3D

 14 15  0  0  0  0  0  0  0  0999 V2000
  139.3429  149.9930  140.5895 C   0  0  0  0  0  0  0  0  0  0  0  0
  138.9526  149.9228  139.3665 C   0  0  0  0  0  0  0  0  0  0  0  0
  138.6128  150.1151  141.6415 C   0  0  0  0  0  0  0  0  0  0  0  0
  137.1849  149.8640  141.8304 C   0  0  0  0  0  0  0  0  0  0  0  0
  136.5144  149.7572  140.5779 C   0  0  0  0  0  0  0  0  0  0  0  0
  139.1166  150.5253  143.0849 C   0  0  0  0  0  0  0  0  0  0  0  0
  138.2341  151.1490  143.8701 C   0  0  0  0  0  0  0  0  0  0  0  0
  136.9087  150.9585  143.7785 C   0  0  0  0  0  0  0  0  0  0  0  0
  135.1108  149.6280  140.3918 C   0  0  0  0  0  0  0  0  0  0  0  0
  139.6678  149.8930  138.1749 C   0  0  0  0  0  0  0  0  0  0  0  0
  136.3915  150.3480  142.8690 C   0  0  0  0  0  0  0  0  0  0  0  0
  137.0325  149.2708  139.2367 C   0  0  0  0  0  0  0  0  0  0  0  0
  138.0528  149.6558  138.7086 C   0  0  0  0  0  0  0  0  0  0  0  0
  135.9182  151.7051  145.0452 C   0  0  0  0  0  0  0  0  0  0  0  0
  1  2  2  0
  1  3  1  0
  3  4  1  0
  4  5  2  0
  3  6  1  0
  6  7  2  0
  7  8  1  0
  5  9  1  0
  2 10  1  0
  4 11  1  0
  8 11  2  0
  5 12  1  0
  2 13  1  0
 12 13  2  0
  8 14  1  0
M  END
$$$$

     RDKit          3D

 14 15  0  0  0  0  0  0  0  0999 V2000
  140.3024  150.2148  139.4796 Cl  0  0  0  0  0  0  0  0  0  0  0  0
  138.6763  150.1843  140.5310 C   0  0  0  0  0  0  0  0  0  0  0  0
  137.6367  149.3820  140.0914 C   0  0  0  0  0  0  0  0  0  0  0  0
  139.2364  150.7157  141.5758 C   0  0  0  0  0  0  0  0  0  0  0  0
  138.2159  150.6942  142.6902 C   0  0  0  0  0  0  0  0  0  0  0  0
  137.4463  149.0252  138.7466 C   0  0  0  0  0  0  0  0  0  0  0  0
  136.9084  150.8161  142.5498 C   0  0  0  0  0  0  0  0  0  0  0  0
  136.3019  150.0704  141.3326 C   0  0  0  0  0  0  0  0  0  0  0  0
  138.2535  151.6771  144.0099 C   0  0  0  0  0  0  0  0  0  0  0  0
  137.3548  151.8775  144.6580 C   0  0  0  0  0  0  0  0  0  0  0  0
  136.1619  151.8499  144.3848 C   0  0  0  0  0  0  0  0  0  0  0  0
  135.0051  152.2945  145.2313 C   0  0  0  0  0  0  0  0  0  0  0  0
  135.8461  151.1648  143.1896 N   0  0  0  0  0  0  0  0  0  0  0  0
  135.4921  152.6928  146.5691 C   0  0  0  0  0  0  0  0  0  0  0  0
  1  2  1  0
  2  3  1  0
  2  4  2  0
  4  5  1  0
  3  6  1  0
  5  7  2  0
  3  8  2  0
  7  8  1  0
  5  9  1  0
  9 10  1  0
 10 11  1  0
 11 12  1  0
  7 13  1  0
 11 13  2  0
 12 14  1  0
M  END
$$$$

     RDKit          3D

 14 15  0  0  0  0  0  0  0  0999 V2000
  139.3429  149.9930  140.5895 C   0  0  0  0  0  0  0  0  0  0  0  0
  138.9526  149.9228  139.3665 C   0  0  0  0  0  0  0  0  0  0  0  0
  138.6128  150.1151  141.6415 C   0  0  0  0  0  0  0  0  0  0  0  0
  137.5731  149.8751  139.0603 C   0  0  0  0  0  0  0  0  0  0  0  0
  137.0927  149.4986  137.8152 C   0  0  0  0  0  0  0  0  0  0  0  0
  139.0049  150.5465  142.9880 C   0  0  0  0  0  0  0  0  0  0  0  0
  138.1933  151.3789  143.6837 C   0  0  0  0  0  0  0  0  0  0  0  0
  136.9028  151.4680  143.1554 C   0  0  0  0  0  0  0  0  0  0  0  0
  136.7362  150.0347  140.2659 C   0  0  0  0  0  0  0  0  0  0  0  0
  136.0023  152.2339  143.9991 C   0  0  0  0  0  0  0  0  0  0  0  0
  135.1075  151.5487  144.8190 C   0  0  0  0  0  0  0  0  0  0  0  0
  137.1622  150.2009  141.4071 C   0  0  0  0  0  0  0  0  0  0  0  0
  136.2801  150.5852  142.4639 N   0  0  0  0  0  0  0  0  0  0  0  0
  135.1597  152.0488  146.1323 C   0  0  0  0  0  0  0  0  0  0  0  0
  1  2  2  0
  1  3  1  0
  2  4  1  0
  4  5  1  0
  3  6  1  0
  6  7  2  0
  7  8  1  0
  4  9  2  0
  8 10  1  0
 10 11  1  0
  3 12  2  0
  9 12  1  0
  8 13  2  0
 12 13  1  0
 11 14  1  0
M  END
$$$$

     RDKit          3D

 14 15  0  0  0  0  0  0  0  0999 V2000
  139.5546  150.5076  140.4455 C   0  0  0  0  0  0  0  0  0  0  0  0
  139.2164  150.0146  139.3742 C   0  0  0  0  0  0  0  0  0  0  0  0
  138.8577  150.3073  141.5866 C   0  0  0  0  0  0  0  0  0  0  0  0
  139.2276  150.3508  142.8915 C   0  0  0  0  0  0  0  0  0  0  0  0
  138.5491  151.2697  143.6827 C   0  0  0  0  0  0  0  0  0  0  0  0
  137.8571  149.4543  139.3226 C   0  0  0  0  0  0  0  0  0  0  0  0
  137.4559  150.0376  141.2281 C   0  0  0  0  0  0  0  0  0  0  0  0
  136.5010  150.2989  142.4542 C   0  0  0  0  0  0  0  0  0  0  0  0
  136.9898  149.5360  140.1367 C   0  0  0  0  0  0  0  0  0  0  0  0
  135.1841  150.3244  142.3537 C   0  0  0  0  0  0  0  0  0  0  0  0
  137.1987  151.0235  143.5208 C   0  0  0  0  0  0  0  0  0  0  0  0
  136.4518  151.7000  144.7154 C   0  0  0  0  0  0  0  0  0  0  0  0
  135.3166  151.0380  145.2007 C   0  0  0  0  0  0  0  0  0  0  0  0
  134.5473  151.6565  146.3237 C   0  0  0  0  0  0  0  0  0  0  0  0
  1  2  2  0
  1  3  1  0
  3  4  1  0
  4  5  2  0
  2  6  1  0
  3  7  2  0
  7  8  1  0
  6  9  2  0
  7  9  1  0
  8 10  1  0
  5 11  1  0
  8 11  2  0
 11 12  1  0
 12 13  2  3
 13 14  1  0
M  END
$$$$

     RDKit          3D

 14 15  0  0  0  0  0  0  0  0999 V2000
  139.3429  149.9930  140.5895 C   0  0  0  0  0  0  0  0  0  0  0  0
  138.9526  149.9228  139.3665 C   0  0  0  0  0  0  0  0  0  0  0  0
  138.6128  150.1151  141.6415 C   0  0  0  0  0  0  0  0  0  0  0  0
  137.1849  149.8640  141.8304 C   0  0  0  0  0  0  0  0  0  0  0  0
  136.5144  149.7572  140.5779 C   0  0  0  0  0  0  0  0  0  0  0  0
  139.1166  150.5253  143.0849 C   0  0  0  0  0  0  0  0  0  0  0  0
  138.1694  151.0130  144.0451 C   0  0  0  0  0  0  0  0  0  0  0  0
  136.8764  150.9305  143.8065 C   0  0  0  0  0  0  0  0  0  0  0  0
  136.2855  150.2865  142.8108 C   0  0  0  0  0  0  0  0  0  0  0  0
  136.0190  151.6165  144.7447 C   0  0  0  0  0  0  0  0  0  0  0  0
  134.9783  151.5025  145.0655 C   0  0  0  0  0  0  0  0  0  0  0  0
  135.2240  149.4832  140.3941 C   0  0  0  0  0  0  0  0  0  0  0  0
  136.7231  152.6973  145.5096 C   0  0  0  0  0  0  0  0  0  0  0  0
  137.5105  149.6443  139.1613 C   0  0  0  0  0  0  0  0  0  0  0  0
  1  2  2  0
  1  3  1  0
  3  4  1  0
  4  5  2  0
  3  6  1  0
  6  7  2  0
  7  8  1  0
  4  9  1  0
  8  9  1  0
  8 10  2  3
 10 11  1  0
  5 12  1  0
 10 13  1  0
  2 14  1  0
  5 14  1  0
M  END
$$$$

     RDKit          3D

 14 15  0  0  0  0  0  0  0  0999 V2000
  139.5546  150.5076  140.4455 C   0  0  0  0  0  0  0  0  0  0  0  0
  139.2164  150.0146  139.3742 C   0  0  0  0  0  0  0  0  0  0  0  0
  138.8577  150.3073  141.5866 C   0  0  0  0  0  0  0  0  0  0  0  0
  137.9802  149.2985  139.2390 C   0  0  0  0  0  0  0  0  0  0  0  0
  137.2016  149.2056  140.2784 C   0  0  0  0  0  0  0  0  0  0  0  0
  135.7673  148.7987  140.2461 C   0  0  0  0  0  0  0  0  0  0  0  0
  139.4101  150.8793  142.9241 C   0  0  0  0  0  0  0  0  0  0  0  0
  138.3780  151.0479  144.0095 C   0  0  0  0  0  0  0  0  0  0  0  0
  137.1920  151.0047  143.6833 C   0  0  0  0  0  0  0  0  0  0  0  0
  136.2389  151.5051  144.7137 C   0  0  0  0  0  0  0  0  0  0  0  0
  137.6328  149.9041  141.5372 C   0  0  0  0  0  0  0  0  0  0  0  0
  136.5998  150.4333  142.5283 C   0  0  0  0  0  0  0  0  0  0  0  0
  136.5318  152.2777  145.6848 C   0  0  0  0  0  0  0  0  0  0  0  0
  135.5311  153.1319  146.3614 C   0  0  0  0  0  0  0  0  0  0  0  0
  1  2  2  0
  1  3  1  0
  2  4  1  0
  4  5  2  0
  5  6  1  0
  3  7  1  0
  7  8  2  0
  8  9  1  0
  9 10  1  0
  3 11  2  0
  5 11  1  0
  9 12  2  0
 11 12  1  0
 10 13  1  0
 13 14  1  0
M  END
$$$$

     RDKit          3D

 14 15  0  0  0  0  0  0  0  0999 V2000
  139.3429  149.9930  140.5895 C   0  0  0  0  0  0  0  0  0  0  0  0
  138.9526  149.9228  139.3665 C   0  0  0  0  0  0  0  0  0  0  0  0
  138.6128  150.1151  141.6415 C   0  0  0  0  0  0  0  0  0  0  0  0
  137.5731  149.8751  139.0603 C   0  0  0  0  0  0  0  0  0  0  0  0
  137.0927  149.4986  137.8152 C   0  0  0  0  0  0  0  0  0  0  0  0
  139.0049  150.5465  142.9880 C   0  0  0  0  0  0  0  0  0  0  0  0
  138.1933  151.3789  143.6837 C   0  0  0  0  0  0  0  0  0  0  0  0
  136.9028  151.4680  143.1554 C   0  0  0  0  0  0  0  0  0  0  0  0
  136.7362  150.0347  140.2659 C   0  0  0  0  0  0  0  0  0  0  0  0
  136.0023  152.2339  143.9991 C   0  0  0  0  0  0  0  0  0  0  0  0
  135.1075  151.5487  144.8190 C   0  0  0  0  0  0  0  0  0  0  0  0
  137.1622  150.2009  141.4071 C   0  0  0  0  0  0  0  0  0  0  0  0
  136.3472  150.3062  142.2374 N   0  0  0  0  0  0  0  0  0  0  0  0
  135.3584  151.8281  146.1906 C   0  0  0  0  0  0  0  0  0  0  0  0
  1  2  2  0
  1  3  1  0
  2  4  1  0
  4  5  1  0
  3  6  1  0
  6  7  2  0
  7  8  1  0
  4  9  2  0
  8 10  1  0
 10 11  1  0
  3 12  2  0
  9 12  1  0
  8 13  1  0
 12 13  1  0
 11 14  1  0
M  END
$$$$

     RDKit          3D

 14 15  0  0  0  0  0  0  0  0999 V2000
  139.5546  150.5076  140.4455 C   0  0  0  0  0  0  0  0  0  0  0  0
  139.2164  150.0146  139.3742 C   0  0  0  0  0  0  0  0  0  0  0  0
  138.8577  150.3073  141.5866 C   0  0  0  0  0  0  0  0  0  0  0  0
  139.2276  150.3508  142.8915 C   0  0  0  0  0  0  0  0  0  0  0  0
  138.5491  151.2697  143.6827 C   0  0  0  0  0  0  0  0  0  0  0  0
  137.8571  149.4543  139.3226 C   0  0  0  0  0  0  0  0  0  0  0  0
  137.4457  151.5292  143.4243 C   0  0  0  0  0  0  0  0  0  0  0  0
  137.0553  149.6488  140.3767 C   0  0  0  0  0  0  0  0  0  0  0  0
  136.5969  152.3859  144.3608 C   0  0  0  0  0  0  0  0  0  0  0  0
  135.5384  149.4618  140.2000 C   0  0  0  0  0  0  0  0  0  0  0  0
  137.5255  150.1431  141.5498 C   0  0  0  0  0  0  0  0  0  0  0  0
  135.4947  151.8511  145.0293 C   0  0  0  0  0  0  0  0  0  0  0  0
  136.7419  150.8215  142.3927 C   0  0  0  0  0  0  0  0  0  0  0  0
  134.7616  152.7272  145.9703 C   0  0  0  0  0  0  0  0  0  0  0  0
  1  2  2  0
  1  3  1  0
  3  4  1  0
  4  5  2  0
  2  6  1  0
  5  7  1  0
  6  8  2  0
  7  9  1  0
  8 10  1  0
  3 11  2  0
  8 11  1  0
  9 12  2  3
  7 13  2  0
 11 13  1  0
 12 14  1  0
M  END
$$$$

     RDKit          3D

 14 15  0  0  0  0  0  0  0  0999 V2000
  139.5546  150.5076  140.4455 C   0  0  0  0  0  0  0  0  0  0  0  0
  139.2164  150.0146  139.3742 C   0  0  0  0  0  0  0  0  0  0  0  0
  138.8577  150.3073  141.5866 C   0  0  0  0  0  0  0  0  0  0  0  0
  139.2276  150.3508  142.8915 C   0  0  0  0  0  0  0  0  0  0  0  0
  138.5491  151.2697  143.6827 C   0  0  0  0  0  0  0  0  0  0  0  0
  137.8571  149.4543  139.3226 C   0  0  0  0  0  0  0  0  0  0  0  0
  137.4559  150.0376  141.2281 C   0  0  0  0  0  0  0  0  0  0  0  0
  136.5010  150.2989  142.4542 C   0  0  0  0  0  0  0  0  0  0  0  0
  137.0173  151.0912  143.5205 C   0  0  0  0  0  0  0  0  0  0  0  0
  137.4862  148.9109  138.0101 C   0  0  0  0  0  0  0  0  0  0  0  0
  136.1368  151.7825  144.6300 C   0  0  0  0  0  0  0  0  0  0  0  0
  136.9553  149.6566  140.3422 N   0  0  0  0  0  0  0  0  0  0  0  0
  136.4757  153.0505  145.0838 C   0  0  0  0  0  0  0  0  0  0  0  0
  135.5962  153.6047  146.1056 C   0  0  0  0  0  0  0  0  0  0  0  0
  1  2  2  0
  1  3  1  0
  3  4  1  0
  4  5  2  0
  2  6  1  0
  3  7  2  0
  7  8  1  0
  5  9  1  0
  8  9  2  0
  6 10  1  0
  9 11  1  0
  6 12  2  0
  7 12  1  0
 11 13  1  0
 13 14  1  0
M  END
$$$$

     RDKit          3D

 14 15  0  0  0  0  0  0  0  0999 V2000
  140.3024  150.2148  139.4796 Cl  0  0  0  0  0  0  0  0  0  0  0  0
  138.6763  150.1843  140.5310 C   0  0  0  0  0  0  0  0  0  0  0  0
  137.6367  149.3820  140.0914 C   0  0  0  0  0  0  0  0  0  0  0  0
  139.0296  150.8810  141.6190 C   0  0  0  0  0  0  0  0  0  0  0  0
  136.6556  149.6404  140.8181 C   0  0  0  0  0  0  0  0  0  0  0  0
  136.6486  150.4486  141.8740 C   0  0  0  0  0  0  0  0  0  0  0  0
  135.4283  150.7331  142.7845 C   0  0  0  0  0  0  0  0  0  0  0  0
  137.8050  151.0306  142.4471 C   0  0  0  0  0  0  0  0  0  0  0  0
  135.6546  150.8747  144.1281 C   0  0  0  0  0  0  0  0  0  0  0  0
  136.5585  151.5502  144.7332 C   0  0  0  0  0  0  0  0  0  0  0  0
  136.6225  152.0802  145.9888 C   0  0  0  0  0  0  0  0  0  0  0  0
  136.0684  151.6181  147.0050 C   0  0  0  0  0  0  0  0  0  0  0  0
  137.8902  151.9624  144.3306 C   0  0  0  0  0  0  0  0  0  0  0  0
  138.4294  151.7062  143.2113 C   0  0  0  0  0  0  0  0  0  0  0  0
  1  2  1  0
  2  3  2  0
  2  4  1  0
  3  5  1  0
  5  6  2  0
  6  7  1  0
  4  8  2  0
  6  8  1  0
  7  9  2  0
  9 10  1  0
 10 11  1  0
 11 12  2  0
 10 13  2  0
  8 14  1  0
 13 14  1  0
M  END
$$$$

     RDKit          3D

 14 15  0  0  0  0  0  0  0  0999 V2000
  139.5546  150.5076  140.4455 C   0  0  0  0  0  0  0  0  0  0  0  0
  139.2164  150.0146  139.3742 C   0  0  0  0  0  0  0  0  0  0  0  0
  138.8577  150.3073  141.5866 C   0  0  0  0  0  0  0  0  0  0  0  0
  139.2276  150.3508  142.8915 C   0  0  0  0  0  0  0  0  0  0  0  0
  138.5491  151.2697  143.6827 C   0  0  0  0  0  0  0  0  0  0  0  0
  137.8571  149.4543  139.3226 C   0  0  0  0  0  0  0  0  0  0  0  0
  137.4457  151.5292  143.4243 C   0  0  0  0  0  0  0  0  0  0  0  0
  137.0553  149.6488  140.3767 C   0  0  0  0  0  0  0  0  0  0  0  0
  136.5969  152.3859  144.3608 C   0  0  0  0  0  0  0  0  0  0  0  0
  135.5384  149.4618  140.2000 C   0  0  0  0  0  0  0  0  0  0  0  0
  137.5255  150.1431  141.5498 C   0  0  0  0  0  0  0  0  0  0  0  0
  136.7244  150.8392  142.4189 C   0  0  0  0  0  0  0  0  0  0  0  0
  137.0120  153.6619  144.6718 C   0  0  0  0  0  0  0  0  0  0  0  0
  135.3299  152.0181  144.9026 C   0  0  0  0  0  0  0  0  0  0  0  0
  1  2  2  0
  1  3  1  0
  3  4  1  0
  4  5  2  0
  2  6  1  0
  5  7  1  0
  6  8  2  0
  7  9  1  0
  8 10  1  0
  3 11  2  0
  8 11  1  0
  7 12  2  0
 11 12  1  0
  9 13  2  0
  9 14  1  0
M  END
$$$$

     RDKit          3D

 14 15  0  0  0  0  0  0  0  0999 V2000
  139.3429  149.9930  140.5895 C   0  0  0  0  0  0  0  0  0  0  0  0
  138.9526  149.9228  139.3665 C   0  0  0  0  0  0  0  0  0  0  0  0
  138.6128  150.1151  141.6415 C   0  0  0  0  0  0  0  0  0  0  0  0
  137.1849  149.8640  141.8304 C   0  0  0  0  0  0  0  0  0  0  0  0
  136.5144  149.7572  140.5779 C   0  0  0  0  0  0  0  0  0  0  0  0
  139.1166  150.5253  143.0849 C   0  0  0  0  0  0  0  0  0  0  0  0
  138.2341  151.1490  143.8701 C   0  0  0  0  0  0  0  0  0  0  0  0
  136.9087  150.9585  143.7785 C   0  0  0  0  0  0  0  0  0  0  0  0
  136.2893  150.2993  142.7352 C   0  0  0  0  0  0  0  0  0  0  0  0
  139.7666  149.9662  138.2170 C   0  0  0  0  0  0  0  0  0  0  0  0
  136.1309  151.5669  144.8692 C   0  0  0  0  0  0  0  0  0  0  0  0
  136.1255  151.3215  146.1240 C   0  0  0  0  0  0  0  0  0  0  0  0
  135.4812  152.7700  144.8424 C   0  0  0  0  0  0  0  0  0  0  0  0
  137.2265  149.6095  139.2530 C   0  0  0  0  0  0  0  0  0  0  0  0
  1  2  2  0
  1  3  1  0
  3  4  1  0
  4  5  2  0
  3  6  1  0
  6  7  2  0
  7  8  1  0
  4  9  1  0
  8  9  1  0
  2 10  1  0
  8 11  1  0
 11 12  1  0
 11 13  2  0
  2 14  1  0
  5 14  1  0
M  END
$$$$

     RDKit          3D

 14 15  0  0  0  0  0  0  0  0999 V2000
  139.3429  149.9930  140.5895 C   0  0  0  0  0  0  0  0  0  0  0  0
  138.9526  149.9228  139.3665 C   0  0  0  0  0  0  0  0  0  0  0  0
  138.6128  150.1151  141.6415 C   0  0  0  0  0  0  0  0  0  0  0  0
  137.1849  149.8640  141.8304 C   0  0  0  0  0  0  0  0  0  0  0  0
  136.5144  149.7572  140.5779 C   0  0  0  0  0  0  0  0  0  0  0  0
  139.1166  150.5253  143.0849 C   0  0  0  0  0  0  0  0  0  0  0  0
  138.1694  151.0130  144.0451 C   0  0  0  0  0  0  0  0  0  0  0  0
  136.8764  150.9305  143.8065 C   0  0  0  0  0  0  0  0  0  0  0  0
  136.2855  150.2865  142.8108 C   0  0  0  0  0  0  0  0  0  0  0  0
  135.2415  149.4705  140.4112 C   0  0  0  0  0  0  0  0  0  0  0  0
  136.4224  151.3294  145.1622 C   0  0  0  0  0  0  0  0  0  0  0  0
  135.3155  152.1849  145.2669 C   0  0  0  0  0  0  0  0  0  0  0  0
  139.7533  149.9336  138.2175 C   0  0  0  0  0  0  0  0  0  0  0  0
  137.1938  149.5892  139.2425 C   0  0  0  0  0  0  0  0  0  0  0  0
  1  2  2  0
  1  3  1  0
  3  4  1  0
  4  5  2  0
  3  6  1  0
  6  7  2  0
  7  8  1  0
  4  9  1  0
  8  9  1  0
  5 10  1  0
  8 11  2  3
 11 12  1  0
  2 13  1  0
  2 14  1  0
  5 14  1  0
M  END
$$$$

     RDKit          3D

 14 15  0  0  0  0  0  0  0  0999 V2000
  139.5546  150.5076  140.4455 C   0  0  0  0  0  0  0  0  0  0  0  0
  139.2164  150.0146  139.3742 C   0  0  0  0  0  0  0  0  0  0  0  0
  138.8577  150.3073  141.5866 C   0  0  0  0  0  0  0  0  0  0  0  0
  139.2276  150.3508  142.8915 C   0  0  0  0  0  0  0  0  0  0  0  0
  138.5491  151.2697  143.6827 C   0  0  0  0  0  0  0  0  0  0  0  0
  137.8571  149.4543  139.3226 C   0  0  0  0  0  0  0  0  0  0  0  0
  137.4559  150.0376  141.2281 C   0  0  0  0  0  0  0  0  0  0  0  0
  136.5010  150.2989  142.4542 C   0  0  0  0  0  0  0  0  0  0  0  0
  137.0173  151.0912  143.5205 C   0  0  0  0  0  0  0  0  0  0  0  0
  136.1793  151.7200  144.4687 C   0  0  0  0  0  0  0  0  0  0  0  0
  135.1971  151.0900  145.1048 C   0  0  0  0  0  0  0  0  0  0  0  0
  136.9197  149.5666  140.2530 C   0  0  0  0  0  0  0  0  0  0  0  0
  135.0476  149.6856  145.1375 O   0  0  0  0  0  0  0  0  0  0  0  0
  134.2966  151.7516  145.9580 C   0  0  0  0  0  0  0  0  0  0  0  0
  1  2  2  0
  1  3  1  0
  3  4  1  0
  4  5  2  0
  2  6  1  0
  3  7  2  0
  7  8  1  0
  5  9  1  0
  8  9  2  0
  9 10  1  0
 10 11  2  3
  6 12  2  0
  7 12  1  0
 11 13  1  0
 11 14  1  0
M  END
$$$$

     RDKit          3D

 14 15  0  0  0  0  0  0  0  0999 V2000
  140.3024  150.2148  139.4796 Cl  0  0  0  0  0  0  0  0  0  0  0  0
  138.6763  150.1843  140.5310 C   0  0  0  0  0  0  0  0  0  0  0  0
  137.6367  149.3820  140.0914 C   0  0  0  0  0  0  0  0  0  0  0  0
  139.2364  150.7157  141.5758 C   0  0  0  0  0  0  0  0  0  0  0  0
  138.2159  150.6942  142.6902 C   0  0  0  0  0  0  0  0  0  0  0  0
  137.4463  149.0252  138.7466 C   0  0  0  0  0  0  0  0  0  0  0  0
  136.9084  150.8161  142.5498 C   0  0  0  0  0  0  0  0  0  0  0  0
  136.3019  150.0704  141.3326 C   0  0  0  0  0  0  0  0  0  0  0  0
  138.2535  151.6771  144.0099 C   0  0  0  0  0  0  0  0  0  0  0  0
  137.3548  151.8775  144.6580 C   0  0  0  0  0  0  0  0  0  0  0  0
  136.1619  151.8499  144.3848 C   0  0  0  0  0  0  0  0  0  0  0  0
  135.0051  152.2945  145.2313 C   0  0  0  0  0  0  0  0  0  0  0  0
  135.8461  151.1648  143.1896 N   0  0  0  0  0  0  0  0  0  0  0  0
  135.0978  153.3000  146.0006 C   0  0  0  0  0  0  0  0  0  0  0  0
  1  2  1  0
  2  3  1  0
  2  4  2  0
  4  5  1  0
  3  6  1  0
  5  7  2  0
  3  8  2  0
  7  8  1  0
  5  9  1  0
  9 10  1  0
 10 11  1  0
 11 12  1  0
  7 13  1  0
 11 13  2  0
 12 14  2  0
M  END
$$$$

     RDKit          3D

 14 15  0  0  0  0  0  0  0  0999 V2000
  139.5546  150.5076  140.4455 C   0  0  0  0  0  0  0  0  0  0  0  0
  139.2164  150.0146  139.3742 C   0  0  0  0  0  0  0  0  0  0  0  0
  138.8577  150.3073  141.5866 C   0  0  0  0  0  0  0  0  0  0  0  0
  139.2276  150.3508  142.8915 C   0  0  0  0  0  0  0  0  0  0  0  0
  138.3509  151.0011  143.9757 C   0  0  0  0  0  0  0  0  0  0  0  0
  137.3998  151.4284  143.6194 C   0  0  0  0  0  0  0  0  0  0  0  0
  136.5337  152.2387  144.6008 C   0  0  0  0  0  0  0  0  0  0  0  0
  137.8483  149.5149  139.3370 C   0  0  0  0  0  0  0  0  0  0  0  0
  136.9622  151.2207  142.2472 C   0  0  0  0  0  0  0  0  0  0  0  0
  135.3288  151.7446  145.0390 C   0  0  0  0  0  0  0  0  0  0  0  0
  136.8277  153.2377  144.9813 O   0  0  0  0  0  0  0  0  0  0  0  0
  137.2881  149.0176  138.2460 C   0  0  0  0  0  0  0  0  0  0  0  0
  137.1454  149.7790  140.5603 C   0  0  0  0  0  0  0  0  0  0  0  0
  137.5306  150.3979  141.5201 C   0  0  0  0  0  0  0  0  0  0  0  0
  1  2  2  0
  1  3  1  0
  3  4  1  0
  4  5  2  0
  5  6  1  0
  6  7  1  0
  2  8  1  0
  6  9  2  0
  7 10  1  0
  7 11  2  0
  8 12  2  0
  8 13  1  0
  3 14  1  0
  9 14  1  0
 13 14  1  0
M  END
$$$$

     RDKit          3D

 14 15  0  0  0  0  0  0  0  0999 V2000
  139.3429  149.9930  140.5895 C   0  0  0  0  0  0  0  0  0  0  0  0
  138.9526  149.9228  139.3665 C   0  0  0  0  0  0  0  0  0  0  0  0
  138.6128  150.1151  141.6415 C   0  0  0  0  0  0  0  0  0  0  0  0
  137.1849  149.8640  141.8304 C   0  0  0  0  0  0  0  0  0  0  0  0
  136.5144  149.7572  140.5779 C   0  0  0  0  0  0  0  0  0  0  0  0
  139.1166  150.5253  143.0849 C   0  0  0  0  0  0  0  0  0  0  0  0
  138.1694  151.0130  144.0451 C   0  0  0  0  0  0  0  0  0  0  0  0
  136.8764  150.9305  143.8065 C   0  0  0  0  0  0  0  0  0  0  0  0
  136.2855  150.2865  142.8108 C   0  0  0  0  0  0  0  0  0  0  0  0
  135.2415  149.4705  140.4112 C   0  0  0  0  0  0  0  0  0  0  0  0
  137.4734  149.6955  139.3674 C   0  0  0  0  0  0  0  0  0  0  0  0
  136.1367  151.5088  144.9883 C   0  0  0  0  0  0  0  0  0  0  0  0
  136.3458  151.2345  146.2759 C   0  0  0  0  0  0  0  0  0  0  0  0
  135.1601  152.4379  144.6869 C   0  0  0  0  0  0  0  0  0  0  0  0
  1  2  2  0
  1  3  1  0
  3  4  1  0
  4  5  2  0
  3  6  1  0
  6  7  2  0
  7  8  1  0
  4  9  1  0
  8  9  1  0
  5 10  1  0
  2 11  1  0
  5 11  1  0
  8 12  1  0
 12 13  2  0
 12 14  1  0
M  END
$$$$

     RDKit          3D

 14 15  0  0  0  0  0  0  0  0999 V2000
  139.3429  149.9930  140.5895 C   0  0  0  0  0  0  0  0  0  0  0  0
  138.9526  149.9228  139.3665 C   0  0  0  0  0  0  0  0  0  0  0  0
  138.6128  150.1151  141.6415 C   0  0  0  0  0  0  0  0  0  0  0  0
  137.1849  149.8640  141.8304 C   0  0  0  0  0  0  0  0  0  0  0  0
  136.5144  149.7572  140.5779 C   0  0  0  0  0  0  0  0  0  0  0  0
  139.1166  150.5253  143.0849 C   0  0  0  0  0  0  0  0  0  0  0  0
  138.2341  151.1490  143.8701 C   0  0  0  0  0  0  0  0  0  0  0  0
  136.9087  150.9585  143.7785 C   0  0  0  0  0  0  0  0  0  0  0  0
  136.3090  150.2516  142.8052 C   0  0  0  0  0  0  0  0  0  0  0  0
  136.1259  151.5185  144.9654 C   0  0  0  0  0  0  0  0  0  0  0  0
  136.2830  151.4734  146.1656 C   0  0  0  0  0  0  0  0  0  0  0  0
  135.0530  152.3613  144.4645 C   0  0  0  0  0  0  0  0  0  0  0  0
  135.2424  149.5006  140.3809 C   0  0  0  0  0  0  0  0  0  0  0  0
  137.4363  149.6403  139.2280 C   0  0  0  0  0  0  0  0  0  0  0  0
  1  2  2  0
  1  3  1  0
  3  4  1  0
  4  5  2  0
  3  6  1  0
  6  7  2  0
  7  8  1  0
  4  9  1  0
  8  9  2  0
  8 10  1  0
 10 11  2  0
 10 12  1  0
  5 13  1  0
  2 14  1  0
  5 14  1  0
M  END
$$$$

     RDKit          3D

 14 15  0  0  0  0  0  0  0  0999 V2000
  139.3429  149.9930  140.5895 C   0  0  0  0  0  0  0  0  0  0  0  0
  138.9526  149.9228  139.3665 C   0  0  0  0  0  0  0  0  0  0  0  0
  138.6128  150.1151  141.6415 C   0  0  0  0  0  0  0  0  0  0  0  0
  137.5731  149.8751  139.0603 C   0  0  0  0  0  0  0  0  0  0  0  0
  137.0927  149.4986  137.8152 C   0  0  0  0  0  0  0  0  0  0  0  0
  139.0049  150.5465  142.9880 C   0  0  0  0  0  0  0  0  0  0  0  0
  138.1933  151.3789  143.6837 C   0  0  0  0  0  0  0  0  0  0  0  0
  136.9028  151.4680  143.1554 C   0  0  0  0  0  0  0  0  0  0  0  0
  136.7362  150.0347  140.2659 C   0  0  0  0  0  0  0  0  0  0  0  0
  136.0023  152.2339  143.9991 C   0  0  0  0  0  0  0  0  0  0  0  0
  135.1075  151.5487  144.8190 C   0  0  0  0  0  0  0  0  0  0  0  0
  137.1622  150.2009  141.4071 C   0  0  0  0  0  0  0  0  0  0  0  0
  136.3472  150.3062  142.2374 N   0  0  0  0  0  0  0  0  0  0  0  0
  135.3844  150.5082  145.4410 C   0  0  0  0  0  0  0  0  0  0  0  0
  1  2  2  0
  1  3  1  0
  2  4  1  0
  4  5  1  0
  3  6  1  0
  6  7  2  0
  7  8  1  0
  4  9  2  0
  8 10  1  0
 10 11  1  0
  3 12  2  0
  9 12  1  0
  8 13  1  0
 12 13  1  0
 11 14  2  0
M  END
$$$$

     RDKit          3D

 14 15  0  0  0  0  0  0  0  0999 V2000
  139.3429  149.9930  140.5895 C   0  0  0  0  0  0  0  0  0  0  0  0
  138.9526  149.9228  139.3665 C   0  0  0  0  0  0  0  0  0  0  0  0
  138.6128  150.1151  141.6415 C   0  0  0  0  0  0  0  0  0  0  0  0
  137.1849  149.8640  141.8304 C   0  0  0  0  0  0  0  0  0  0  0  0
  136.5144  149.7572  140.5779 C   0  0  0  0  0  0  0  0  0  0  0  0
  139.1166  150.5253  143.0849 C   0  0  0  0  0  0  0  0  0  0  0  0
  138.2341  151.1490  143.8701 C   0  0  0  0  0  0  0  0  0  0  0  0
  136.9087  150.9585  143.7785 C   0  0  0  0  0  0  0  0  0  0  0  0
  139.8171  149.9679  138.2305 C   0  0  0  0  0  0  0  0  0  0  0  0
  136.1345  151.4467  144.9802 C   0  0  0  0  0  0  0  0  0  0  0  0
  135.0787  149.6015  140.5299 C   0  0  0  0  0  0  0  0  0  0  0  0
  136.4353  150.2547  142.9016 N   0  0  0  0  0  0  0  0  0  0  0  0
  137.0087  149.4955  139.2773 C   0  0  0  0  0  0  0  0  0  0  0  0
  136.4960  151.7411  146.1078 O   0  0  0  0  0  0  0  0  0  0  0  0
  1  2  2  0
  1  3  1  0
  3  4  1  0
  4  5  2  0
  3  6  1  0
  6  7  2  0
  7  8  1  0
  2  9  1  0
  8 10  1  0
  5 11  1  0
  4 12  1  0
  8 12  2  0
  2 13  1  0
  5 13  1  0
 10 14  2  0
M  END
$$$$

     RDKit          3D

 14 15  0  0  0  0  0  0  0  0999 V2000
  138.7091  151.1474  142.6274 C   0  0  0  0  0  0  0  0  0  0  0  0
  138.5250  151.9378  143.5111 C   0  0  0  0  0  0  0  0  0  0  0  0
  137.3808  151.6590  144.3960 C   0  0  0  0  0  0  0  0  0  0  0  0
  139.6671  150.9842  141.6902 C   0  0  0  0  0  0  0  0  0  0  0  0
  136.7223  150.4781  143.9637 C   0  0  0  0  0  0  0  0  0  0  0  0
  137.7855  150.1127  142.3490 C   0  0  0  0  0  0  0  0  0  0  0  0
  138.1041  149.3710  141.0881 C   0  0  0  0  0  0  0  0  0  0  0  0
  137.2573  148.9419  140.1763 C   0  0  0  0  0  0  0  0  0  0  0  0
  136.7739  149.7552  143.0386 C   0  0  0  0  0  0  0  0  0  0  0  0
  139.4792  150.0700  140.6578 C   0  0  0  0  0  0  0  0  0  0  0  0
  140.1524  149.7626  139.6157 O   0  0  0  0  0  0  0  0  0  0  0  0
  137.1984  152.5396  145.5089 C   0  0  0  0  0  0  0  0  0  0  0  0
  136.1321  153.1658  145.5185 C   0  0  0  0  0  0  0  0  0  0  0  0
  134.9452  152.8550  146.2824 C   0  0  0  0  0  0  0  0  0  0  0  0
  1  2  1  0
  2  3  2  0
  1  4  1  0
  3  5  1  0
  1  6  2  0
  6  7  1  0
  7  8  1  0
  5  9  2  0
  6  9  1  0
  4 10  1  0
  7 10  1  0
 10 11  2  0
  3 12  1  0
 12 13  1  0
 13 14  1  0
M  END
$$$$

     RDKit          3D

 14 15  0  0  0  0  0  0  0  0999 V2000
  139.3429  149.9930  140.5895 C   0  0  0  0  0  0  0  0  0  0  0  0
  138.9526  149.9228  139.3665 C   0  0  0  0  0  0  0  0  0  0  0  0
  138.6128  150.1151  141.6415 C   0  0  0  0  0  0  0  0  0  0  0  0
  137.1849  149.8640  141.8304 C   0  0  0  0  0  0  0  0  0  0  0  0
  136.5144  149.7572  140.5779 C   0  0  0  0  0  0  0  0  0  0  0  0
  139.1166  150.5253  143.0849 C   0  0  0  0  0  0  0  0  0  0  0  0
  138.2341  151.1490  143.8701 C   0  0  0  0  0  0  0  0  0  0  0  0
  136.9087  150.9585  143.7785 C   0  0  0  0  0  0  0  0  0  0  0  0
  135.1108  149.6280  140.3918 C   0  0  0  0  0  0  0  0  0  0  0  0
  139.6678  149.8930  138.1749 C   0  0  0  0  0  0  0  0  0  0  0  0
  137.3941  149.7310  139.2402 C   0  0  0  0  0  0  0  0  0  0  0  0
  136.3308  150.1883  142.8024 C   0  0  0  0  0  0  0  0  0  0  0  0
  135.8908  151.7087  144.9196 C   0  0  0  0  0  0  0  0  0  0  0  0
  136.2349  152.5471  145.6494 O   0  0  0  0  0  0  0  0  0  0  0  0
  1  2  2  0
  1  3  1  0
  3  4  1  0
  4  5  2  0
  3  6  1  0
  6  7  2  0
  7  8  1  0
  5  9  1  0
  2 10  1  0
  2 11  1  0
  5 11  1  0
  4 12  1  0
  8 12  2  0
  8 13  1  0
 13 14  1  0
M  END
$$$$

     RDKit          3D

 14 15  0  0  0  0  0  0  0  0999 V2000
  139.5546  150.5076  140.4455 C   0  0  0  0  0  0  0  0  0  0  0  0
  139.2164  150.0146  139.3742 C   0  0  0  0  0  0  0  0  0  0  0  0
  138.8577  150.3073  141.5866 C   0  0  0  0  0  0  0  0  0  0  0  0
  139.2276  150.3508  142.8915 C   0  0  0  0  0  0  0  0  0  0  0  0
  138.3509  151.0011  143.9757 C   0  0  0  0  0  0  0  0  0  0  0  0
  137.3998  151.4284  143.6194 C   0  0  0  0  0  0  0  0  0  0  0  0
  136.5337  152.2387  144.6008 C   0  0  0  0  0  0  0  0  0  0  0  0
  137.8483  149.5149  139.3370 C   0  0  0  0  0  0  0  0  0  0  0  0
  137.0816  149.5749  140.4415 C   0  0  0  0  0  0  0  0  0  0  0  0
  137.5247  150.0176  141.6255 C   0  0  0  0  0  0  0  0  0  0  0  0
  135.4892  151.6058  145.2677 C   0  0  0  0  0  0  0  0  0  0  0  0
  136.6666  150.6842  142.6078 C   0  0  0  0  0  0  0  0  0  0  0  0
  135.2719  150.3003  145.4473 C   0  0  0  0  0  0  0  0  0  0  0  0
  134.4939  152.3907  146.0965 C   0  0  0  0  0  0  0  0  0  0  0  0
  1  2  2  0
  1  3  1  0
  3  4  1  0
  4  5  2  0
  5  6  1  0
  6  7  1  0
  2  8  1  0
  8  9  2  0
  3 10  2  0
  9 10  1  0
  7 11  2  3
  6 12  2  0
 10 12  1  0
 11 13  1  0
 11 14  1  0
M  END
$$$$

     RDKit          3D

 14 15  0  0  0  0  0  0  0  0999 V2000
  140.3024  150.2148  139.4796 Cl  0  0  0  0  0  0  0  0  0  0  0  0
  138.6763  150.1843  140.5310 C   0  0  0  0  0  0  0  0  0  0  0  0
  137.6367  149.3820  140.0914 C   0  0  0  0  0  0  0  0  0  0  0  0
  139.0296  150.8810  141.6190 C   0  0  0  0  0  0  0  0  0  0  0  0
  136.6556  149.6404  140.8181 C   0  0  0  0  0  0  0  0  0  0  0  0
  136.6486  150.4486  141.8740 C   0  0  0  0  0  0  0  0  0  0  0  0
  135.4283  150.7331  142.7845 C   0  0  0  0  0  0  0  0  0  0  0  0
  137.8050  151.0306  142.4471 C   0  0  0  0  0  0  0  0  0  0  0  0
  135.6546  150.8747  144.1281 C   0  0  0  0  0  0  0  0  0  0  0  0
  136.5585  151.5502  144.7332 C   0  0  0  0  0  0  0  0  0  0  0  0
  136.6225  152.0802  145.9888 C   0  0  0  0  0  0  0  0  0  0  0  0
  136.0684  151.6181  147.0050 C   0  0  0  0  0  0  0  0  0  0  0  0
  137.8902  151.9624  144.3306 C   0  0  0  0  0  0  0  0  0  0  0  0
  138.4294  151.7062  143.2113 N   0  0  0  0  0  0  0  0  0  0  0  0
  1  2  1  0
  2  3  2  0
  2  4  1  0
  3  5  1  0
  5  6  2  0
  6  7  1  0
  4  8  2  0
  6  8  1  0
  7  9  2  0
  9 10  1  0
 10 11  1  0
 11 12  2  0
 10 13  2  0
  8 14  1  0
 13 14  1  0
M  END
$$$$

     RDKit          3D

 14 15  0  0  0  0  0  0  0  0999 V2000
  139.3429  149.9930  140.5895 C   0  0  0  0  0  0  0  0  0  0  0  0
  138.9526  149.9228  139.3665 C   0  0  0  0  0  0  0  0  0  0  0  0
  138.6128  150.1151  141.6415 C   0  0  0  0  0  0  0  0  0  0  0  0
  137.5731  149.8751  139.0603 C   0  0  0  0  0  0  0  0  0  0  0  0
  137.0927  149.4986  137.8152 C   0  0  0  0  0  0  0  0  0  0  0  0
  139.0049  150.5465  142.9880 C   0  0  0  0  0  0  0  0  0  0  0  0
  138.1933  151.3789  143.6837 C   0  0  0  0  0  0  0  0  0  0  0  0
  136.9028  151.4680  143.1554 C   0  0  0  0  0  0  0  0  0  0  0  0
  136.7362  150.0347  140.2659 C   0  0  0  0  0  0  0  0  0  0  0  0
  136.0023  152.2339  143.9991 C   0  0  0  0  0  0  0  0  0  0  0  0
  135.1075  151.5487  144.8190 C   0  0  0  0  0  0  0  0  0  0  0  0
  137.1689  150.1878  141.3968 C   0  0  0  0  0  0  0  0  0  0  0  0
  136.4783  150.5216  142.2605 N   0  0  0  0  0  0  0  0  0  0  0  0
  135.2582  150.4549  145.3147 C   0  0  0  0  0  0  0  0  0  0  0  0
  1  2  2  0
  1  3  1  0
  2  4  1  0
  4  5  1  0
  3  6  1  0
  6  7  2  0
  7  8  1  0
  4  9  2  0
  8 10  1  0
 10 11  1  0
  3 12  2  0
  9 12  1  0
  8 13  2  0
 12 13  1  0
 11 14  2  0
M  END
$$$$

     RDKit          3D

 14 15  0  0  0  0  0  0  0  0999 V2000
  138.7091  151.1474  142.6274 C   0  0  0  0  0  0  0  0  0  0  0  0
  138.5250  151.9378  143.5111 C   0  0  0  0  0  0  0  0  0  0  0  0
  137.3808  151.6590  144.3960 C   0  0  0  0  0  0  0  0  0  0  0  0
  139.6671  150.9842  141.6902 C   0  0  0  0  0  0  0  0  0  0  0  0
  136.7223  150.4781  143.9637 C   0  0  0  0  0  0  0  0  0  0  0  0
  137.7855  150.1127  142.3490 C   0  0  0  0  0  0  0  0  0  0  0  0
  138.1041  149.3710  141.0881 C   0  0  0  0  0  0  0  0  0  0  0  0
  137.2573  148.9419  140.1763 C   0  0  0  0  0  0  0  0  0  0  0  0
  136.7739  149.7552  143.0386 C   0  0  0  0  0  0  0  0  0  0  0  0
  139.4792  150.0700  140.6578 C   0  0  0  0  0  0  0  0  0  0  0  0
  140.1524  149.7626  139.6157 O   0  0  0  0  0  0  0  0  0  0  0  0
  137.1984  152.5396  145.5089 C   0  0  0  0  0  0  0  0  0  0  0  0
  136.1321  153.1658  145.5185 C   0  0  0  0  0  0  0  0  0  0  0  0
  135.9872  154.5033  145.3133 C   0  0  0  0  0  0  0  0  0  0  0  0
  1  2  1  0
  2  3  2  0
  1  4  1  0
  3  5  1  0
  1  6  2  0
  6  7  1  0
  7  8  1  0
  5  9  2  0
  6  9  1  0
  4 10  1  0
  7 10  1  0
 10 11  2  0
  3 12  1  0
 12 13  1  0
 13 14  2  0
M  END
$$$$

     RDKit          3D

 15 16  0  0  0  0  0  0  0  0999 V2000
  139.3429  149.9930  140.5895 C   0  0  0  0  0  0  0  0  0  0  0  0
  138.9526  149.9228  139.3665 C   0  0  0  0  0  0  0  0  0  0  0  0
  138.6128  150.1151  141.6415 C   0  0  0  0  0  0  0  0  0  0  0  0
  137.1849  149.8640  141.8304 C   0  0  0  0  0  0  0  0  0  0  0  0
  136.5144  149.7572  140.5779 C   0  0  0  0  0  0  0  0  0  0  0  0
  139.1166  150.5253  143.0849 C   0  0  0  0  0  0  0  0  0  0  0  0
  138.1694  151.0130  144.0451 C   0  0  0  0  0  0  0  0  0  0  0  0
  136.8764  150.9305  143.8065 C   0  0  0  0  0  0  0  0  0  0  0  0
  136.2855  150.2865  142.8108 C   0  0  0  0  0  0  0  0  0  0  0  0
  136.0190  151.6165  144.7447 C   0  0  0  0  0  0  0  0  0  0  0  0
  134.9783  151.5025  145.0655 C   0  0  0  0  0  0  0  0  0  0  0  0
  135.2240  149.4832  140.3941 C   0  0  0  0  0  0  0  0  0  0  0  0
  136.7231  152.6973  145.5096 C   0  0  0  0  0  0  0  0  0  0  0  0
  139.7560  149.9359  138.2182 C   0  0  0  0  0  0  0  0  0  0  0  0
  137.4428  149.6737  139.2197 C   0  0  0  0  0  0  0  0  0  0  0  0
  1  2  2  0
  1  3  1  0
  3  4  1  0
  4  5  2  0
  3  6  1  0
  6  7  2  0
  7  8  1  0
  4  9  1  0
  8  9  1  0
  8 10  2  3
 10 11  1  0
  5 12  1  0
 10 13  1  0
  2 14  1  0
  2 15  1  0
  5 15  1  0
M  END
$$$$

     RDKit          3D

 15 16  0  0  0  0  0  0  0  0999 V2000
  139.3429  149.9930  140.5895 C   0  0  0  0  0  0  0  0  0  0  0  0
  138.9526  149.9228  139.3665 C   0  0  0  0  0  0  0  0  0  0  0  0
  138.6128  150.1151  141.6415 C   0  0  0  0  0  0  0  0  0  0  0  0
  137.1849  149.8640  141.8304 C   0  0  0  0  0  0  0  0  0  0  0  0
  136.5144  149.7572  140.5779 C   0  0  0  0  0  0  0  0  0  0  0  0
  139.1166  150.5253  143.0849 C   0  0  0  0  0  0  0  0  0  0  0  0
  138.2341  151.1490  143.8701 C   0  0  0  0  0  0  0  0  0  0  0  0
  136.9087  150.9585  143.7785 C   0  0  0  0  0  0  0  0  0  0  0  0
  135.1108  149.6280  140.3918 C   0  0  0  0  0  0  0  0  0  0  0  0
  139.6678  149.8930  138.1749 C   0  0  0  0  0  0  0  0  0  0  0  0
  136.1170  151.4113  144.9631 C   0  0  0  0  0  0  0  0  0  0  0  0
  136.4444  150.2526  142.8927 C   0  0  0  0  0  0  0  0  0  0  0  0
  136.3698  151.3419  146.2156 C   0  0  0  0  0  0  0  0  0  0  0  0
  137.4057  149.6546  139.2925 C   0  0  0  0  0  0  0  0  0  0  0  0
  135.3165  152.3821  144.8021 C   0  0  0  0  0  0  0  0  0  0  0  0
  1  2  2  0
  1  3  1  0
  3  4  1  0
  4  5  2  0
  3  6  1  0
  6  7  2  0
  7  8  1  0
  5  9  1  0
  2 10  1  0
  8 11  1  0
  4 12  1  0
  8 12  2  0
 11 13  1  0
  2 14  1  0
  5 14  1  0
 11 15  1  0
M  END
$$$$

     RDKit          3D

 15 16  0  0  0  0  0  0  0  0999 V2000
  139.3429  149.9930  140.5895 C   0  0  0  0  0  0  0  0  0  0  0  0
  138.9526  149.9228  139.3665 C   0  0  0  0  0  0  0  0  0  0  0  0
  138.6128  150.1151  141.6415 C   0  0  0  0  0  0  0  0  0  0  0  0
  137.5731  149.8751  139.0603 C   0  0  0  0  0  0  0  0  0  0  0  0
  137.0927  149.4986  137.8152 C   0  0  0  0  0  0  0  0  0  0  0  0
  139.0049  150.5465  142.9880 C   0  0  0  0  0  0  0  0  0  0  0  0
  138.1933  151.3789  143.6837 C   0  0  0  0  0  0  0  0  0  0  0  0
  136.9028  151.4680  143.1554 C   0  0  0  0  0  0  0  0  0  0  0  0
  136.7362  150.0347  140.2659 C   0  0  0  0  0  0  0  0  0  0  0  0
  136.0023  152.2339  143.9991 C   0  0  0  0  0  0  0  0  0  0  0  0
  135.1075  151.5487  144.8190 C   0  0  0  0  0  0  0  0  0  0  0  0
  135.2749  150.1697  140.0572 C   0  0  0  0  0  0  0  0  0  0  0  0
  137.2239  150.2207  141.6800 C   0  0  0  0  0  0  0  0  0  0  0  0
  136.3277  150.7549  142.4432 C   0  0  0  0  0  0  0  0  0  0  0  0
  135.1261  150.2588  145.0458 C   0  0  0  0  0  0  0  0  0  0  0  0
  1  2  2  0
  1  3  1  0
  2  4  1  0
  4  5  1  0
  3  6  1  0
  6  7  2  0
  7  8  1  0
  4  9  2  0
  8 10  1  0
 10 11  2  3
  9 12  1  0
  3 13  2  0
  9 13  1  0
  8 14  2  0
 13 14  1  0
 11 15  1  0
M  END
$$$$

     RDKit          3D

 15 16  0  0  0  0  0  0  0  0999 V2000
  139.3429  149.9930  140.5895 C   0  0  0  0  0  0  0  0  0  0  0  0
  138.9526  149.9228  139.3665 C   0  0  0  0  0  0  0  0  0  0  0  0
  138.6128  150.1151  141.6415 C   0  0  0  0  0  0  0  0  0  0  0  0
  137.1849  149.8640  141.8304 C   0  0  0  0  0  0  0  0  0  0  0  0
  136.5144  149.7572  140.5779 C   0  0  0  0  0  0  0  0  0  0  0  0
  139.1166  150.5253  143.0849 C   0  0  0  0  0  0  0  0  0  0  0  0
  138.2341  151.1490  143.8701 C   0  0  0  0  0  0  0  0  0  0  0  0
  136.9087  150.9585  143.7785 C   0  0  0  0  0  0  0  0  0  0  0  0
  139.8171  149.9679  138.2305 C   0  0  0  0  0  0  0  0  0  0  0  0
  136.1345  151.4467  144.9802 C   0  0  0  0  0  0  0  0  0  0  0  0
  135.0787  149.6015  140.5299 C   0  0  0  0  0  0  0  0  0  0  0  0
  136.4061  150.2436  142.9101 C   0  0  0  0  0  0  0  0  0  0  0  0
  136.3977  151.5264  146.1770 C   0  0  0  0  0  0  0  0  0  0  0  0
  134.9064  152.0991  144.7280 C   0  0  0  0  0  0  0  0  0  0  0  0
  137.3410  149.6102  139.3242 C   0  0  0  0  0  0  0  0  0  0  0  0
  1  2  2  0
  1  3  1  0
  3  4  1  0
  4  5  2  0
  3  6  1  0
  6  7  2  0
  7  8  1  0
  2  9  1  0
  8 10  1  0
  5 11  1  0
  4 12  1  0
  8 12  2  0
 10 13  1  0
 10 14  2  0
  2 15  1  0
  5 15  1  0
M  END
$$$$

     RDKit          3D

 15 16  0  0  0  0  0  0  0  0999 V2000
  139.5546  150.5076  140.4455 C   0  0  0  0  0  0  0  0  0  0  0  0
  139.2164  150.0146  139.3742 C   0  0  0  0  0  0  0  0  0  0  0  0
  138.8577  150.3073  141.5866 C   0  0  0  0  0  0  0  0  0  0  0  0
  137.9802  149.2985  139.2390 C   0  0  0  0  0  0  0  0  0  0  0  0
  139.3336  150.9318  142.8840 C   0  0  0  0  0  0  0  0  0  0  0  0
  138.3135  151.4959  143.6105 C   0  0  0  0  0  0  0  0  0  0  0  0
  137.0050  151.1284  143.2688 C   0  0  0  0  0  0  0  0  0  0  0  0
  136.0278  151.6441  144.2809 C   0  0  0  0  0  0  0  0  0  0  0  0
  137.1010  149.3447  140.4158 C   0  0  0  0  0  0  0  0  0  0  0  0
  135.6799  149.0225  140.2664 C   0  0  0  0  0  0  0  0  0  0  0  0
  137.6114  149.9542  141.5566 C   0  0  0  0  0  0  0  0  0  0  0  0
  135.4525  151.0305  145.2024 C   0  0  0  0  0  0  0  0  0  0  0  0
  136.6738  150.2352  142.5336 N   0  0  0  0  0  0  0  0  0  0  0  0
  135.9205  149.7645  145.6509 C   0  0  0  0  0  0  0  0  0  0  0  0
  134.3865  151.7129  145.9928 C   0  0  0  0  0  0  0  0  0  0  0  0
  1  2  2  0
  1  3  1  0
  2  4  1  0
  3  5  1  0
  5  6  2  0
  6  7  1  0
  7  8  1  0
  4  9  2  0
  9 10  1  0
  3 11  2  0
  9 11  1  0
  8 12  2  3
  7 13  2  0
 11 13  1  0
 12 14  1  0
 12 15  1  0
M  END
$$$$

     RDKit          3D

 15 16  0  0  0  0  0  0  0  0999 V2000
  139.3429  149.9930  140.5895 C   0  0  0  0  0  0  0  0  0  0  0  0
  138.9526  149.9228  139.3665 C   0  0  0  0  0  0  0  0  0  0  0  0
  138.6128  150.1151  141.6415 C   0  0  0  0  0  0  0  0  0  0  0  0
  137.1849  149.8640  141.8304 C   0  0  0  0  0  0  0  0  0  0  0  0
  136.5144  149.7572  140.5779 C   0  0  0  0  0  0  0  0  0  0  0  0
  139.1166  150.5253  143.0849 C   0  0  0  0  0  0  0  0  0  0  0  0
  138.2341  151.1490  143.8701 C   0  0  0  0  0  0  0  0  0  0  0  0
  136.9087  150.9585  143.7785 C   0  0  0  0  0  0  0  0  0  0  0  0
  135.1108  149.6280  140.3918 C   0  0  0  0  0  0  0  0  0  0  0  0
  139.6678  149.8930  138.1749 C   0  0  0  0  0  0  0  0  0  0  0  0
  136.1170  151.4113  144.9631 C   0  0  0  0  0  0  0  0  0  0  0  0
  136.4444  150.2526  142.8927 C   0  0  0  0  0  0  0  0  0  0  0  0
  137.0196  149.3436  139.2056 C   0  0  0  0  0  0  0  0  0  0  0  0
  136.3106  151.2741  146.2043 C   0  0  0  0  0  0  0  0  0  0  0  0
  138.0522  149.6972  138.7052 C   0  0  0  0  0  0  0  0  0  0  0  0
  1  2  2  0
  1  3  1  0
  3  4  1  0
  4  5  2  0
  3  6  1  0
  6  7  2  0
  7  8  1  0
  5  9  1  0
  2 10  1  0
  8 11  1  0
  4 12  1  0
  8 12  2  0
  5 13  1  0
 11 14  2  0
  2 15  1  0
 13 15  2  0
M  END
$$$$

     RDKit          3D

 15 16  0  0  0  0  0  0  0  0999 V2000
  139.5546  150.5076  140.4455 C   0  0  0  0  0  0  0  0  0  0  0  0
  139.2164  150.0146  139.3742 C   0  0  0  0  0  0  0  0  0  0  0  0
  138.8577  150.3073  141.5866 C   0  0  0  0  0  0  0  0  0  0  0  0
  139.2276  150.3508  142.8915 C   0  0  0  0  0  0  0  0  0  0  0  0
  138.5491  151.2697  143.6827 C   0  0  0  0  0  0  0  0  0  0  0  0
  137.8571  149.4543  139.3226 C   0  0  0  0  0  0  0  0  0  0  0  0
  137.4559  150.0376  141.2281 C   0  0  0  0  0  0  0  0  0  0  0  0
  136.5010  150.2989  142.4542 C   0  0  0  0  0  0  0  0  0  0  0  0
  137.0173  151.0912  143.5205 C   0  0  0  0  0  0  0  0  0  0  0  0
  136.1793  151.7200  144.4687 C   0  0  0  0  0  0  0  0  0  0  0  0
  137.4744  148.9137  138.0215 C   0  0  0  0  0  0  0  0  0  0  0  0
  135.2124  151.0786  145.1206 C   0  0  0  0  0  0  0  0  0  0  0  0
  136.9724  149.6409  140.3403 N   0  0  0  0  0  0  0  0  0  0  0  0
  135.0798  149.6762  145.1553 O   0  0  0  0  0  0  0  0  0  0  0  0
  134.3477  151.7531  146.0098 C   0  0  0  0  0  0  0  0  0  0  0  0
  1  2  2  0
  1  3  1  0
  3  4  1  0
  4  5  2  0
  2  6  1  0
  3  7  2  0
  7  8  1  0
  5  9  1  0
  8  9  2  0
  9 10  1  0
  6 11  1  0
 10 12  2  3
  6 13  2  0
  7 13  1  0
 12 14  1  0
 12 15  1  0
M  END
$$$$

     RDKit          3D

 15 16  0  0  0  0  0  0  0  0999 V2000
  139.3429  149.9930  140.5895 C   0  0  0  0  0  0  0  0  0  0  0  0
  138.9526  149.9228  139.3665 C   0  0  0  0  0  0  0  0  0  0  0  0
  138.6128  150.1151  141.6415 C   0  0  0  0  0  0  0  0  0  0  0  0
  137.1849  149.8640  141.8304 C   0  0  0  0  0  0  0  0  0  0  0  0
  136.5144  149.7572  140.5779 C   0  0  0  0  0  0  0  0  0  0  0  0
  139.1166  150.5253  143.0849 C   0  0  0  0  0  0  0  0  0  0  0  0
  138.2341  151.1490  143.8701 C   0  0  0  0  0  0  0  0  0  0  0  0
  136.9087  150.9585  143.7785 C   0  0  0  0  0  0  0  0  0  0  0  0
  135.1108  149.6280  140.3918 C   0  0  0  0  0  0  0  0  0  0  0  0
  139.6678  149.8930  138.1749 C   0  0  0  0  0  0  0  0  0  0  0  0
  136.1170  151.4113  144.9631 C   0  0  0  0  0  0  0  0  0  0  0  0
  136.4337  150.2563  142.7166 N   0  0  0  0  0  0  0  0  0  0  0  0
  137.0029  149.3894  139.2435 C   0  0  0  0  0  0  0  0  0  0  0  0
  135.2618  152.3673  144.7859 C   0  0  0  0  0  0  0  0  0  0  0  0
  138.1615  149.7274  138.8006 C   0  0  0  0  0  0  0  0  0  0  0  0
  1  2  2  0
  1  3  1  0
  3  4  1  0
  4  5  2  0
  3  6  1  0
  6  7  2  0
  7  8  1  0
  5  9  1  0
  2 10  1  0
  8 11  1  0
  4 12  1  0
  8 12  2  0
  5 13  1  0
 11 14  2  0
 10 15  2  0
 13 15  2  0
M  END
$$$$

     RDKit          3D

 15 17  0  0  0  0  0  0  0  0999 V2000
  139.3429  149.9930  140.5895 C   0  0  0  0  0  0  0  0  0  0  0  0
  138.9526  149.9228  139.3665 C   0  0  0  0  0  0  0  0  0  0  0  0
  138.6128  150.1151  141.6415 C   0  0  0  0  0  0  0  0  0  0  0  0
  137.1849  149.8640  141.8304 C   0  0  0  0  0  0  0  0  0  0  0  0
  136.5144  149.7572  140.5779 C   0  0  0  0  0  0  0  0  0  0  0  0
  139.1166  150.5253  143.0849 C   0  0  0  0  0  0  0  0  0  0  0  0
  138.2341  151.1490  143.8701 C   0  0  0  0  0  0  0  0  0  0  0  0
  136.9087  150.9585  143.7785 C   0  0  0  0  0  0  0  0  0  0  0  0
  136.1432  151.4444  144.9802 C   0  0  0  0  0  0  0  0  0  0  0  0
  137.1435  149.6730  139.2434 C   0  0  0  0  0  0  0  0  0  0  0  0
  136.4317  151.2410  146.2723 C   0  0  0  0  0  0  0  0  0  0  0  0
  136.4143  150.2775  142.8701 C   0  0  0  0  0  0  0  0  0  0  0  0
  135.0204  152.2757  144.8914 C   0  0  0  0  0  0  0  0  0  0  0  0
  134.5268  152.8703  146.1291 C   0  0  0  0  0  0  0  0  0  0  0  0
  135.4005  152.4251  147.1094 C   0  0  0  0  0  0  0  0  0  0  0  0
  1  2  2  0
  1  3  1  0
  3  4  1  0
  4  5  2  0
  3  6  1  0
  6  7  2  0
  7  8  1  0
  8  9  1  0
  2 10  1  0
  5 10  1  0
  9 11  1  0
  4 12  1  0
  8 12  2  0
  9 13  2  0
 13 14  1  0
 11 15  1  0
 14 15  2  0
M  END
$$$$

     RDKit          3D

 15 16  0  0  0  0  0  0  0  0999 V2000
  139.5546  150.5076  140.4455 C   0  0  0  0  0  0  0  0  0  0  0  0
  139.2164  150.0146  139.3742 C   0  0  0  0  0  0  0  0  0  0  0  0
  138.8577  150.3073  141.5866 C   0  0  0  0  0  0  0  0  0  0  0  0
  139.2276  150.3508  142.8915 C   0  0  0  0  0  0  0  0  0  0  0  0
  138.3509  151.0011  143.9757 C   0  0  0  0  0  0  0  0  0  0  0  0
  137.3998  151.4284  143.6194 C   0  0  0  0  0  0  0  0  0  0  0  0
  136.5337  152.2387  144.6008 C   0  0  0  0  0  0  0  0  0  0  0  0
  137.8483  149.5149  139.3370 C   0  0  0  0  0  0  0  0  0  0  0  0
  136.9622  151.2207  142.2472 C   0  0  0  0  0  0  0  0  0  0  0  0
  137.2887  149.0194  138.2592 C   0  0  0  0  0  0  0  0  0  0  0  0
  137.1487  149.7377  140.5435 C   0  0  0  0  0  0  0  0  0  0  0  0
  135.3866  151.6892  145.1237 C   0  0  0  0  0  0  0  0  0  0  0  0
  137.4719  150.4385  141.5420 C   0  0  0  0  0  0  0  0  0  0  0  0
  137.0474  153.4070  145.0147 C   0  0  0  0  0  0  0  0  0  0  0  0
  134.5843  152.5332  145.9055 C   0  0  0  0  0  0  0  0  0  0  0  0
  1  2  2  0
  1  3  1  0
  3  4  1  0
  4  5  2  0
  5  6  1  0
  6  7  1  0
  2  8  1  0
  6  9  2  0
  8 10  1  0
  8 11  2  0
  7 12  2  3
  3 13  2  0
  9 13  1  0
 11 13  1  0
  7 14  1  0
 12 15  1  0
M  END
$$$$

     RDKit          3D

 15 16  0  0  0  0  0  0  0  0999 V2000
  139.3429  149.9930  140.5895 C   0  0  0  0  0  0  0  0  0  0  0  0
  138.9526  149.9228  139.3665 C   0  0  0  0  0  0  0  0  0  0  0  0
  138.6128  150.1151  141.6415 C   0  0  0  0  0  0  0  0  0  0  0  0
  137.1849  149.8640  141.8304 C   0  0  0  0  0  0  0  0  0  0  0  0
  136.5144  149.7572  140.5779 C   0  0  0  0  0  0  0  0  0  0  0  0
  139.1889  150.4046  143.0744 C   0  0  0  0  0  0  0  0  0  0  0  0
  138.2456  150.9517  144.0738 C   0  0  0  0  0  0  0  0  0  0  0  0
  139.6584  149.8786  138.1597 C   0  0  0  0  0  0  0  0  0  0  0  0
  135.0341  149.6412  140.5207 C   0  0  0  0  0  0  0  0  0  0  0  0
  137.4108  149.6872  139.2177 C   0  0  0  0  0  0  0  0  0  0  0  0
  136.9980  151.2120  143.8950 C   0  0  0  0  0  0  0  0  0  0  0  0
  136.2325  151.7392  144.9678 C   0  0  0  0  0  0  0  0  0  0  0  0
  136.4101  150.3680  142.9070 C   0  0  0  0  0  0  0  0  0  0  0  0
  134.9761  151.3780  145.2368 C   0  0  0  0  0  0  0  0  0  0  0  0
  134.1419  152.1434  146.2447 C   0  0  0  0  0  0  0  0  0  0  0  0
  1  2  2  0
  1  3  1  0
  3  4  1  0
  4  5  2  0
  3  6  1  0
  6  7  2  0
  2  8  1  0
  5  9  1  0
  2 10  1  0
  5 10  1  0
  7 11  1  0
 11 12  1  0
  4 13  1  0
 11 13  2  0
 12 14  2  3
 14 15  1  0
M  END
$$$$

     RDKit          3D

 15 17  0  0  0  0  0  0  0  0999 V2000
  139.3429  149.9930  140.5895 C   0  0  0  0  0  0  0  0  0  0  0  0
  138.9526  149.9228  139.3665 C   0  0  0  0  0  0  0  0  0  0  0  0
  138.6128  150.1151  141.6415 C   0  0  0  0  0  0  0  0  0  0  0  0
  137.1849  149.8640  141.8304 C   0  0  0  0  0  0  0  0  0  0  0  0
  136.5144  149.7572  140.5779 C   0  0  0  0  0  0  0  0  0  0  0  0
  139.1166  150.5253  143.0849 C   0  0  0  0  0  0  0  0  0  0  0  0
  138.2341  151.1490  143.8701 C   0  0  0  0  0  0  0  0  0  0  0  0
  136.9087  150.9585  143.7785 C   0  0  0  0  0  0  0  0  0  0  0  0
  136.3090  150.2516  142.8052 C   0  0  0  0  0  0  0  0  0  0  0  0
  136.1259  151.5185  144.9654 C   0  0  0  0  0  0  0  0  0  0  0  0
  137.4075  149.6318  139.3218 C   0  0  0  0  0  0  0  0  0  0  0  0
  136.2262  151.4416  146.1529 C   0  0  0  0  0  0  0  0  0  0  0  0
  135.3250  152.5929  144.8378 C   0  0  0  0  0  0  0  0  0  0  0  0
  135.0380  153.2863  146.0752 C   0  0  0  0  0  0  0  0  0  0  0  0
  135.6528  152.5350  146.7754 C   0  0  0  0  0  0  0  0  0  0  0  0
  1  2  2  0
  1  3  1  0
  3  4  1  0
  4  5  2  0
  3  6  1  0
  6  7  2  0
  7  8  1  0
  4  9  1  0
  8  9  2  0
  8 10  1  0
  2 11  1  0
  5 11  1  0
 10 12  1  0
 10 13  2  0
 13 14  1  0
 12 15  2  0
 14 15  1  0
M  END
$$$$

     RDKit          3D

 15 16  0  0  0  0  0  0  0  0999 V2000
  139.5546  150.5076  140.4455 C   0  0  0  0  0  0  0  0  0  0  0  0
  139.2164  150.0146  139.3742 C   0  0  0  0  0  0  0  0  0  0  0  0
  138.8577  150.3073  141.5866 C   0  0  0  0  0  0  0  0  0  0  0  0
  139.2276  150.3508  142.8915 C   0  0  0  0  0  0  0  0  0  0  0  0
  138.5491  151.2697  143.6827 C   0  0  0  0  0  0  0  0  0  0  0  0
  137.8571  149.4543  139.3226 C   0  0  0  0  0  0  0  0  0  0  0  0
  137.4457  151.5292  143.4243 C   0  0  0  0  0  0  0  0  0  0  0  0
  137.0553  149.6488  140.3767 C   0  0  0  0  0  0  0  0  0  0  0  0
  136.5969  152.3859  144.3608 C   0  0  0  0  0  0  0  0  0  0  0  0
  135.5384  149.4618  140.2000 C   0  0  0  0  0  0  0  0  0  0  0  0
  137.5255  150.1431  141.5498 C   0  0  0  0  0  0  0  0  0  0  0  0
  135.4947  151.8511  145.0293 C   0  0  0  0  0  0  0  0  0  0  0  0
  136.7003  150.6838  142.5574 C   0  0  0  0  0  0  0  0  0  0  0  0
  135.3746  150.5692  145.3230 C   0  0  0  0  0  0  0  0  0  0  0  0
  134.4661  152.4484  145.6839 C   0  0  0  0  0  0  0  0  0  0  0  0
  1  2  2  0
  1  3  1  0
  3  4  1  0
  4  5  2  0
  2  6  1  0
  5  7  1  0
  6  8  2  0
  7  9  1  0
  8 10  1  0
  3 11  2  0
  8 11  1  0
  9 12  2  3
  7 13  2  0
 11 13  1  0
 12 14  1  0
 12 15  1  0
M  END
$$$$

     RDKit          3D

 15 16  0  0  0  0  0  0  0  0999 V2000
  139.5546  150.5076  140.4455 C   0  0  0  0  0  0  0  0  0  0  0  0
  139.2164  150.0146  139.3742 C   0  0  0  0  0  0  0  0  0  0  0  0
  138.8577  150.3073  141.5866 C   0  0  0  0  0  0  0  0  0  0  0  0
  139.2276  150.3508  142.8915 C   0  0  0  0  0  0  0  0  0  0  0  0
  138.5491  151.2697  143.6827 C   0  0  0  0  0  0  0  0  0  0  0  0
  137.8571  149.4543  139.3226 C   0  0  0  0  0  0  0  0  0  0  0  0
  137.4457  151.5292  143.4243 C   0  0  0  0  0  0  0  0  0  0  0  0
  136.9924  149.5969  140.4311 C   0  0  0  0  0  0  0  0  0  0  0  0
  136.5980  152.3839  144.3652 C   0  0  0  0  0  0  0  0  0  0  0  0
  137.5268  150.1103  141.6056 C   0  0  0  0  0  0  0  0  0  0  0  0
  136.7108  150.8333  142.4297 N   0  0  0  0  0  0  0  0  0  0  0  0
  136.9904  153.6712  144.6008 C   0  0  0  0  0  0  0  0  0  0  0  0
  135.5009  151.9914  145.0880 C   0  0  0  0  0  0  0  0  0  0  0  0
  134.8104  152.9079  145.8663 C   0  0  0  0  0  0  0  0  0  0  0  0
  133.7487  152.3596  146.7344 C   0  0  0  0  0  0  0  0  0  0  0  0
  1  2  2  0
  1  3  1  0
  3  4  1  0
  4  5  2  0
  2  6  1  0
  5  7  1  0
  6  8  2  0
  7  9  1  0
  3 10  2  0
  8 10  1  0
  7 11  2  0
 10 11  1  0
  9 12  2  0
  9 13  1  0
 13 14  2  3
 14 15  1  0
M  END
$$$$

     RDKit          3D

 15 16  0  0  0  0  0  0  0  0999 V2000
  139.3429  149.9930  140.5895 C   0  0  0  0  0  0  0  0  0  0  0  0
  138.9526  149.9228  139.3665 C   0  0  0  0  0  0  0  0  0  0  0  0
  138.6128  150.1151  141.6415 C   0  0  0  0  0  0  0  0  0  0  0  0
  137.1849  149.8640  141.8304 C   0  0  0  0  0  0  0  0  0  0  0  0
  136.5144  149.7572  140.5779 C   0  0  0  0  0  0  0  0  0  0  0  0
  139.1166  150.5253  143.0849 C   0  0  0  0  0  0  0  0  0  0  0  0
  138.2341  151.1490  143.8701 C   0  0  0  0  0  0  0  0  0  0  0  0
  136.9087  150.9585  143.7785 C   0  0  0  0  0  0  0  0  0  0  0  0
  139.8171  149.9679  138.2305 C   0  0  0  0  0  0  0  0  0  0  0  0
  136.1345  151.4467  144.9802 C   0  0  0  0  0  0  0  0  0  0  0  0
  135.0787  149.6015  140.5299 C   0  0  0  0  0  0  0  0  0  0  0  0
  136.4353  150.2547  142.9016 N   0  0  0  0  0  0  0  0  0  0  0  0
  137.3811  149.6535  139.3766 C   0  0  0  0  0  0  0  0  0  0  0  0
  136.4742  151.6934  146.1152 C   0  0  0  0  0  0  0  0  0  0  0  0
  135.2952  152.5560  144.9297 C   0  0  0  0  0  0  0  0  0  0  0  0
  1  2  2  0
  1  3  1  0
  3  4  1  0
  4  5  2  0
  3  6  1  0
  6  7  2  0
  7  8  1  0
  2  9  1  0
  8 10  1  0
  5 11  1  0
  4 12  1  0
  8 12  2  0
  2 13  1  0
  5 13  1  0
 10 14  1  0
 10 15  1  0
M  END
$$$$

     RDKit          3D

 15 16  0  0  0  0  0  0  0  0999 V2000
  139.3429  149.9930  140.5895 C   0  0  0  0  0  0  0  0  0  0  0  0
  138.9526  149.9228  139.3665 C   0  0  0  0  0  0  0  0  0  0  0  0
  138.6128  150.1151  141.6415 C   0  0  0  0  0  0  0  0  0  0  0  0
  137.5731  149.8751  139.0603 C   0  0  0  0  0  0  0  0  0  0  0  0
  137.0927  149.4986  137.8152 C   0  0  0  0  0  0  0  0  0  0  0  0
  139.0049  150.5465  142.9880 C   0  0  0  0  0  0  0  0  0  0  0  0
  138.1933  151.3789  143.6837 C   0  0  0  0  0  0  0  0  0  0  0  0
  136.9028  151.4680  143.1554 C   0  0  0  0  0  0  0  0  0  0  0  0
  136.7362  150.0347  140.2659 C   0  0  0  0  0  0  0  0  0  0  0  0
  136.0023  152.2339  143.9991 C   0  0  0  0  0  0  0  0  0  0  0  0
  135.1075  151.5487  144.8190 C   0  0  0  0  0  0  0  0  0  0  0  0
  135.2749  150.1697  140.0572 C   0  0  0  0  0  0  0  0  0  0  0  0
  137.2657  150.2952  141.5723 C   0  0  0  0  0  0  0  0  0  0  0  0
  135.6886  150.5333  145.6913 C   0  0  0  0  0  0  0  0  0  0  0  0
  136.4666  150.7202  142.2362 N   0  0  0  0  0  0  0  0  0  0  0  0
  1  2  2  0
  1  3  1  0
  2  4  1  0
  4  5  1  0
  3  6  1  0
  6  7  2  0
  7  8  1  0
  4  9  2  0
  8 10  1  0
 10 11  2  3
  9 12  1  0
  3 13  2  0
  9 13  1  0
 11 14  1  0
  8 15  2  0
 13 15  1  0
M  END
$$$$

     RDKit          3D

 15 16  0  0  0  0  0  0  0  0999 V2000
  139.5546  150.5076  140.4455 C   0  0  0  0  0  0  0  0  0  0  0  0
  139.2164  150.0146  139.3742 C   0  0  0  0  0  0  0  0  0  0  0  0
  138.8577  150.3073  141.5866 C   0  0  0  0  0  0  0  0  0  0  0  0
  139.2276  150.3508  142.8915 C   0  0  0  0  0  0  0  0  0  0  0  0
  138.3509  151.0011  143.9757 C   0  0  0  0  0  0  0  0  0  0  0  0
  137.3998  151.4284  143.6194 C   0  0  0  0  0  0  0  0  0  0  0  0
  136.5337  152.2387  144.6008 C   0  0  0  0  0  0  0  0  0  0  0  0
  136.9469  151.2646  142.2219 C   0  0  0  0  0  0  0  0  0  0  0  0
  137.5648  150.6466  141.3565 C   0  0  0  0  0  0  0  0  0  0  0  0
  136.9392  153.4523  145.0587 C   0  0  0  0  0  0  0  0  0  0  0  0
  135.4747  151.7207  145.2170 C   0  0  0  0  0  0  0  0  0  0  0  0
  136.1720  154.0699  146.0042 C   0  0  0  0  0  0  0  0  0  0  0  0
  140.0097  150.1651  138.1123 C   0  0  0  0  0  0  0  0  0  0  0  0
  135.2740  153.3676  146.4852 C   0  0  0  0  0  0  0  0  0  0  0  0
  134.7871  152.2372  146.2101 C   0  0  0  0  0  0  0  0  0  0  0  0
  1  2  2  3
  1  3  1  0
  3  4  1  0
  4  5  2  0
  5  6  1  0
  6  7  1  0
  6  8  2  0
  3  9  2  0
  8  9  1  0
  7 10  2  0
  7 11  1  0
 10 12  1  0
  2 13  1  0
 12 14  2  0
 11 15  2  0
 14 15  1  0
M  END
$$$$

     RDKit          3D

 15 17  0  0  0  0  0  0  0  0999 V2000
  139.3429  149.9930  140.5895 C   0  0  0  0  0  0  0  0  0  0  0  0
  138.9526  149.9228  139.3665 C   0  0  0  0  0  0  0  0  0  0  0  0
  138.6128  150.1151  141.6415 C   0  0  0  0  0  0  0  0  0  0  0  0
  137.1849  149.8640  141.8304 C   0  0  0  0  0  0  0  0  0  0  0  0
  136.5144  149.7572  140.5779 C   0  0  0  0  0  0  0  0  0  0  0  0
  139.1166  150.5253  143.0849 C   0  0  0  0  0  0  0  0  0  0  0  0
  138.2341  151.1490  143.8701 C   0  0  0  0  0  0  0  0  0  0  0  0
  136.9087  150.9585  143.7785 C   0  0  0  0  0  0  0  0  0  0  0  0
  136.3090  150.2516  142.8052 C   0  0  0  0  0  0  0  0  0  0  0  0
  136.1259  151.5185  144.9654 C   0  0  0  0  0  0  0  0  0  0  0  0
  137.4075  149.6318  139.3218 C   0  0  0  0  0  0  0  0  0  0  0  0
  136.2262  151.4416  146.1529 C   0  0  0  0  0  0  0  0  0  0  0  0
  135.3250  152.5929  144.8378 C   0  0  0  0  0  0  0  0  0  0  0  0
  135.0380  153.2863  146.0752 C   0  0  0  0  0  0  0  0  0  0  0  0
  135.6528  152.5350  146.7754 N   0  0  0  0  0  0  0  0  0  0  0  0
  1  2  2  0
  1  3  1  0
  3  4  1  0
  4  5  2  0
  3  6  1  0
  6  7  2  0
  7  8  1  0
  4  9  1  0
  8  9  2  0
  8 10  1  0
  2 11  1  0
  5 11  1  0
 10 12  1  0
 10 13  2  0
 13 14  1  0
 12 15  1  0
 14 15  2  0
M  END
$$$$

     RDKit          3D

 15 16  0  0  0  0  0  0  0  0999 V2000
  139.3429  149.9930  140.5895 C   0  0  0  0  0  0  0  0  0  0  0  0
  138.9526  149.9228  139.3665 C   0  0  0  0  0  0  0  0  0  0  0  0
  138.6128  150.1151  141.6415 C   0  0  0  0  0  0  0  0  0  0  0  0
  137.1849  149.8640  141.8304 C   0  0  0  0  0  0  0  0  0  0  0  0
  136.5144  149.7572  140.5779 C   0  0  0  0  0  0  0  0  0  0  0  0
  139.1166  150.5253  143.0849 C   0  0  0  0  0  0  0  0  0  0  0  0
  138.2341  151.1490  143.8701 C   0  0  0  0  0  0  0  0  0  0  0  0
  136.9087  150.9585  143.7785 C   0  0  0  0  0  0  0  0  0  0  0  0
  139.8171  149.9679  138.2305 C   0  0  0  0  0  0  0  0  0  0  0  0
  136.1345  151.4467  144.9802 C   0  0  0  0  0  0  0  0  0  0  0  0
  135.0787  149.6015  140.5299 C   0  0  0  0  0  0  0  0  0  0  0  0
  136.4353  150.2547  142.9016 N   0  0  0  0  0  0  0  0  0  0  0  0
  137.0087  149.4955  139.2773 C   0  0  0  0  0  0  0  0  0  0  0  0
  136.4745  151.6384  146.1377 C   0  0  0  0  0  0  0  0  0  0  0  0
  138.0394  149.7078  138.6751 C   0  0  0  0  0  0  0  0  0  0  0  0
  1  2  2  0
  1  3  1  0
  3  4  1  0
  4  5  2  0
  3  6  1  0
  6  7  2  0
  7  8  1  0
  2  9  1  0
  8 10  1  0
  5 11  1  0
  4 12  1  0
  8 12  2  0
  5 13  1  0
 10 14  2  0
  2 15  1  0
 13 15  2  0
M  END
$$$$

     RDKit          3D

 15 16  0  0  0  0  0  0  0  0999 V2000
  139.3429  149.9930  140.5895 C   0  0  0  0  0  0  0  0  0  0  0  0
  138.9526  149.9228  139.3665 C   0  0  0  0  0  0  0  0  0  0  0  0
  138.6128  150.1151  141.6415 C   0  0  0  0  0  0  0  0  0  0  0  0
  137.1849  149.8640  141.8304 C   0  0  0  0  0  0  0  0  0  0  0  0
  136.5144  149.7572  140.5779 C   0  0  0  0  0  0  0  0  0  0  0  0
  139.1166  150.5253  143.0849 C   0  0  0  0  0  0  0  0  0  0  0  0
  138.2341  151.1490  143.8701 C   0  0  0  0  0  0  0  0  0  0  0  0
  136.9087  150.9585  143.7785 C   0  0  0  0  0  0  0  0  0  0  0  0
  139.8171  149.9679  138.2305 C   0  0  0  0  0  0  0  0  0  0  0  0
  136.1345  151.4467  144.9802 C   0  0  0  0  0  0  0  0  0  0  0  0
  135.0787  149.6015  140.5299 C   0  0  0  0  0  0  0  0  0  0  0  0
  135.0196  152.2617  144.7754 C   0  0  0  0  0  0  0  0  0  0  0  0
  136.9513  149.6997  139.2550 C   0  0  0  0  0  0  0  0  0  0  0  0
  136.5001  150.1707  142.7809 N   0  0  0  0  0  0  0  0  0  0  0  0
  138.0304  149.7941  138.6642 C   0  0  0  0  0  0  0  0  0  0  0  0
  1  2  2  0
  1  3  1  0
  3  4  1  0
  4  5  2  0
  3  6  1  0
  6  7  2  0
  7  8  1  0
  2  9  1  0
  8 10  1  0
  5 11  1  0
 10 12  1  0
  5 13  1  0
  4 14  1  0
  8 14  2  0
  2 15  1  0
 13 15  2  0
M  END
$$$$

     RDKit          3D

 15 16  0  0  0  0  0  0  0  0999 V2000
  139.3429  149.9930  140.5895 C   0  0  0  0  0  0  0  0  0  0  0  0
  138.9526  149.9228  139.3665 C   0  0  0  0  0  0  0  0  0  0  0  0
  138.6128  150.1151  141.6415 C   0  0  0  0  0  0  0  0  0  0  0  0
  137.1849  149.8640  141.8304 C   0  0  0  0  0  0  0  0  0  0  0  0
  136.5144  149.7572  140.5779 C   0  0  0  0  0  0  0  0  0  0  0  0
  139.1889  150.4046  143.0744 C   0  0  0  0  0  0  0  0  0  0  0  0
  138.2456  150.9517  144.0738 C   0  0  0  0  0  0  0  0  0  0  0  0
  139.6584  149.8786  138.1597 C   0  0  0  0  0  0  0  0  0  0  0  0
  137.0523  149.6910  139.2208 C   0  0  0  0  0  0  0  0  0  0  0  0
  136.5812  150.3293  142.9806 C   0  0  0  0  0  0  0  0  0  0  0  0
  137.0504  150.7099  144.0652 C   0  0  0  0  0  0  0  0  0  0  0  0
  136.1422  150.9897  145.3529 C   0  0  0  0  0  0  0  0  0  0  0  0
  135.7892  152.2010  145.5296 C   0  0  0  0  0  0  0  0  0  0  0  0
  136.3330  153.2542  144.9995 C   0  0  0  0  0  0  0  0  0  0  0  0
  135.1132  152.3424  146.7001 C   0  0  0  0  0  0  0  0  0  0  0  0
  1  2  2  0
  1  3  1  0
  3  4  1  0
  4  5  2  0
  3  6  1  0
  6  7  2  0
  2  8  1  0
  2  9  1  0
  5  9  1  0
  4 10  1  0
  7 11  1  0
 10 11  2  0
 11 12  1  0
 12 13  1  0
 13 14  1  0
 13 15  2  0
M  END
$$$$

     RDKit          3D

 15 17  0  0  0  0  0  0  0  0999 V2000
  139.3429  149.9930  140.5895 C   0  0  0  0  0  0  0  0  0  0  0  0
  138.9526  149.9228  139.3665 C   0  0  0  0  0  0  0  0  0  0  0  0
  138.6128  150.1151  141.6415 C   0  0  0  0  0  0  0  0  0  0  0  0
  137.1849  149.8640  141.8304 C   0  0  0  0  0  0  0  0  0  0  0  0
  136.5144  149.7572  140.5779 C   0  0  0  0  0  0  0  0  0  0  0  0
  139.1166  150.5253  143.0849 C   0  0  0  0  0  0  0  0  0  0  0  0
  138.2341  151.1490  143.8701 C   0  0  0  0  0  0  0  0  0  0  0  0
  136.9087  150.9585  143.7785 C   0  0  0  0  0  0  0  0  0  0  0  0
  136.1432  151.4444  144.9802 C   0  0  0  0  0  0  0  0  0  0  0  0
  137.1435  149.6730  139.2434 C   0  0  0  0  0  0  0  0  0  0  0  0
  136.4317  151.2410  146.2723 C   0  0  0  0  0  0  0  0  0  0  0  0
  136.4143  150.2775  142.8701 C   0  0  0  0  0  0  0  0  0  0  0  0
  135.0204  152.2757  144.8914 C   0  0  0  0  0  0  0  0  0  0  0  0
  134.5268  152.8703  146.1291 C   0  0  0  0  0  0  0  0  0  0  0  0
  135.4005  152.4251  147.1094 C   0  0  0  0  0  0  0  0  0  0  0  0
  1  2  2  0
  1  3  1  0
  3  4  1  0
  4  5  2  0
  3  6  1  0
  6  7  2  0
  7  8  1  0
  8  9  1  0
  2 10  1  0
  5 10  1  0
  9 11  1  0
  4 12  1  0
  8 12  2  0
  9 13  2  0
 13 14  1  0
 11 15  1  0
 14 15  1  0
M  END
$$$$

     RDKit          3D

 15 16  0  0  0  0  0  0  0  0999 V2000
  139.5546  150.5076  140.4455 C   0  0  0  0  0  0  0  0  0  0  0  0
  139.2164  150.0146  139.3742 C   0  0  0  0  0  0  0  0  0  0  0  0
  138.8577  150.3073  141.5866 C   0  0  0  0  0  0  0  0  0  0  0  0
  137.9802  149.2985  139.2390 C   0  0  0  0  0  0  0  0  0  0  0  0
  139.3336  150.9318  142.8840 C   0  0  0  0  0  0  0  0  0  0  0  0
  137.6155  149.8592  141.7296 C   0  0  0  0  0  0  0  0  0  0  0  0
  136.8124  149.9083  142.8503 C   0  0  0  0  0  0  0  0  0  0  0  0
  137.4191  148.7852  138.1092 C   0  0  0  0  0  0  0  0  0  0  0  0
  137.0651  150.9030  143.5436 C   0  0  0  0  0  0  0  0  0  0  0  0
  136.1826  151.3740  144.7122 C   0  0  0  0  0  0  0  0  0  0  0  0
  138.4805  151.3022  143.8910 C   0  0  0  0  0  0  0  0  0  0  0  0
  137.0808  149.1272  140.4962 C   0  0  0  0  0  0  0  0  0  0  0  0
  136.0684  152.5098  145.1226 C   0  0  0  0  0  0  0  0  0  0  0  0
  136.9056  153.5428  144.7742 C   0  0  0  0  0  0  0  0  0  0  0  0
  134.9850  152.8975  146.1842 C   0  0  0  0  0  0  0  0  0  0  0  0
  1  2  2  0
  1  3  1  0
  2  4  1  0
  3  5  1  0
  3  6  2  0
  6  7  1  0
  4  8  1  0
  7  9  2  0
  9 10  1  0
  5 11  2  0
  9 11  1  0
  4 12  2  0
  6 12  1  0
 10 13  1  0
 13 14  2  0
 13 15  1  0
M  END
$$$$

     RDKit          3D

 15 16  0  0  0  0  0  0  0  0999 V2000
  139.5546  150.5076  140.4455 C   0  0  0  0  0  0  0  0  0  0  0  0
  139.2164  150.0146  139.3742 C   0  0  0  0  0  0  0  0  0  0  0  0
  138.8577  150.3073  141.5866 C   0  0  0  0  0  0  0  0  0  0  0  0
  139.2276  150.3508  142.8915 C   0  0  0  0  0  0  0  0  0  0  0  0
  138.5491  151.2697  143.6827 C   0  0  0  0  0  0  0  0  0  0  0  0
  137.8571  149.4543  139.3226 C   0  0  0  0  0  0  0  0  0  0  0  0
  137.4457  151.5292  143.4243 C   0  0  0  0  0  0  0  0  0  0  0  0
  137.0553  149.6488  140.3767 C   0  0  0  0  0  0  0  0  0  0  0  0
  135.5533  149.4893  140.2130 C   0  0  0  0  0  0  0  0  0  0  0  0
  137.4568  150.3649  141.7859 C   0  0  0  0  0  0  0  0  0  0  0  0
  136.6079  152.3539  144.4397 C   0  0  0  0  0  0  0  0  0  0  0  0
  136.7686  153.6561  144.7675 C   0  0  0  0  0  0  0  0  0  0  0  0
  135.3772  151.8117  144.9840 C   0  0  0  0  0  0  0  0  0  0  0  0
  135.4088  151.8942  146.4032 C   0  0  0  0  0  0  0  0  0  0  0  0
  136.6433  150.9572  142.5727 N   0  0  0  0  0  0  0  0  0  0  0  0
  1  2  2  0
  1  3  1  0
  3  4  1  0
  4  5  2  0
  2  6  1  0
  5  7  1  0
  6  8  2  0
  8  9  1  0
  3 10  2  0
  8 10  1  0
  7 11  1  0
 11 12  1  0
 11 13  2  3
 13 14  1  0
  7 15  2  0
 10 15  1  0
M  END
$$$$

     RDKit          3D

 15 16  0  0  0  0  0  0  0  0999 V2000
  139.5546  150.5076  140.4455 C   0  0  0  0  0  0  0  0  0  0  0  0
  139.2164  150.0146  139.3742 C   0  0  0  0  0  0  0  0  0  0  0  0
  138.8577  150.3073  141.5866 C   0  0  0  0  0  0  0  0  0  0  0  0
  139.2276  150.3508  142.8915 C   0  0  0  0  0  0  0  0  0  0  0  0
  138.3509  151.0011  143.9757 C   0  0  0  0  0  0  0  0  0  0  0  0
  137.3998  151.4284  143.6194 C   0  0  0  0  0  0  0  0  0  0  0  0
  136.5337  152.2387  144.6008 C   0  0  0  0  0  0  0  0  0  0  0  0
  137.8483  149.5149  139.3370 C   0  0  0  0  0  0  0  0  0  0  0  0
  137.0816  149.5749  140.4415 C   0  0  0  0  0  0  0  0  0  0  0  0
  137.5247  150.0176  141.6255 C   0  0  0  0  0  0  0  0  0  0  0  0
  135.4892  151.6058  145.2677 C   0  0  0  0  0  0  0  0  0  0  0  0
  136.6666  150.6842  142.6078 C   0  0  0  0  0  0  0  0  0  0  0  0
  136.8065  153.6185  144.7311 C   0  0  0  0  0  0  0  0  0  0  0  0
  135.1471  152.3656  146.4162 C   0  0  0  0  0  0  0  0  0  0  0  0
  134.3160  151.7551  147.3722 C   0  0  0  0  0  0  0  0  0  0  0  0
  1  2  2  0
  1  3  1  0
  3  4  1  0
  4  5  2  0
  5  6  1  0
  6  7  1  0
  2  8  1  0
  8  9  2  0
  3 10  2  0
  9 10  1  0
  7 11  2  3
  6 12  2  0
 10 12  1  0
  7 13  1  0
 11 14  1  0
 14 15  1  0
M  END
$$$$

     RDKit          3D

 15 16  0  0  0  0  0  0  0  0999 V2000
  139.3429  149.9930  140.5895 C   0  0  0  0  0  0  0  0  0  0  0  0
  138.9526  149.9228  139.3665 C   0  0  0  0  0  0  0  0  0  0  0  0
  138.6128  150.1151  141.6415 C   0  0  0  0  0  0  0  0  0  0  0  0
  137.1849  149.8640  141.8304 C   0  0  0  0  0  0  0  0  0  0  0  0
  136.5144  149.7572  140.5779 C   0  0  0  0  0  0  0  0  0  0  0  0
  139.1166  150.5253  143.0849 C   0  0  0  0  0  0  0  0  0  0  0  0
  138.2341  151.1490  143.8701 C   0  0  0  0  0  0  0  0  0  0  0  0
  136.9087  150.9585  143.7785 C   0  0  0  0  0  0  0  0  0  0  0  0
  135.1108  149.6280  140.3918 C   0  0  0  0  0  0  0  0  0  0  0  0
  139.6678  149.8930  138.1749 C   0  0  0  0  0  0  0  0  0  0  0  0
  136.1170  151.4113  144.9631 C   0  0  0  0  0  0  0  0  0  0  0  0
  136.3865  150.2624  142.7323 C   0  0  0  0  0  0  0  0  0  0  0  0
  137.0355  149.3215  139.2065 C   0  0  0  0  0  0  0  0  0  0  0  0
  138.0614  149.6903  138.7074 C   0  0  0  0  0  0  0  0  0  0  0  0
  135.2421  152.4205  144.8154 C   0  0  0  0  0  0  0  0  0  0  0  0
  1  2  2  0
  1  3  1  0
  3  4  1  0
  4  5  2  0
  3  6  1  0
  6  7  2  0
  7  8  1  0
  5  9  1  0
  2 10  1  0
  8 11  1  0
  4 12  1  0
  8 12  2  0
  5 13  1  0
  2 14  1  0
 13 14  2  0
 11 15  1  0
M  END
$$$$

     RDKit          3D

 16 18  0  0  0  0  0  0  0  0999 V2000
  139.3429  149.9930  140.5895 C   0  0  0  0  0  0  0  0  0  0  0  0
  138.9526  149.9228  139.3665 C   0  0  0  0  0  0  0  0  0  0  0  0
  138.6128  150.1151  141.6415 C   0  0  0  0  0  0  0  0  0  0  0  0
  137.1849  149.8640  141.8304 C   0  0  0  0  0  0  0  0  0  0  0  0
  136.5144  149.7572  140.5779 C   0  0  0  0  0  0  0  0  0  0  0  0
  139.1166  150.5253  143.0849 C   0  0  0  0  0  0  0  0  0  0  0  0
  138.2341  151.1490  143.8701 C   0  0  0  0  0  0  0  0  0  0  0  0
  136.9087  150.9585  143.7785 C   0  0  0  0  0  0  0  0  0  0  0  0
  139.8171  149.9679  138.2305 C   0  0  0  0  0  0  0  0  0  0  0  0
  136.2940  150.3278  142.7973 C   0  0  0  0  0  0  0  0  0  0  0  0
  136.0731  151.6127  145.0642 C   0  0  0  0  0  0  0  0  0  0  0  0
  136.2292  151.5699  146.1893 C   0  0  0  0  0  0  0  0  0  0  0  0
  135.3063  152.6009  144.7938 C   0  0  0  0  0  0  0  0  0  0  0  0
  134.8788  153.3151  146.0046 C   0  0  0  0  0  0  0  0  0  0  0  0
  135.5136  152.5818  146.7750 C   0  0  0  0  0  0  0  0  0  0  0  0
  137.5001  149.6709  139.2922 C   0  0  0  0  0  0  0  0  0  0  0  0
  1  2  2  0
  1  3  1  0
  3  4  1  0
  4  5  2  0
  3  6  1  0
  6  7  2  0
  7  8  1  0
  2  9  1  0
  4 10  1  0
  8 10  2  0
  8 11  1  0
 11 12  1  0
 11 13  2  0
 13 14  1  0
 12 15  1  0
 14 15  1  0
  2 16  1  0
  5 16  1  0
M  END
$$$$

     RDKit          3D

 16 18  0  0  0  0  0  0  0  0999 V2000
  139.5546  150.5076  140.4455 C   0  0  0  0  0  0  0  0  0  0  0  0
  139.2164  150.0146  139.3742 C   0  0  0  0  0  0  0  0  0  0  0  0
  138.8577  150.3073  141.5866 C   0  0  0  0  0  0  0  0  0  0  0  0
  139.2276  150.3508  142.8915 C   0  0  0  0  0  0  0  0  0  0  0  0
  138.5491  151.2697  143.6827 C   0  0  0  0  0  0  0  0  0  0  0  0
  137.8571  149.4543  139.3226 C   0  0  0  0  0  0  0  0  0  0  0  0
  137.4559  150.0376  141.2281 C   0  0  0  0  0  0  0  0  0  0  0  0
  136.5010  150.2989  142.4542 C   0  0  0  0  0  0  0  0  0  0  0  0
  137.0173  151.0912  143.5205 C   0  0  0  0  0  0  0  0  0  0  0  0
  136.1793  151.7200  144.4687 C   0  0  0  0  0  0  0  0  0  0  0  0
  135.1971  151.0900  145.1048 C   0  0  0  0  0  0  0  0  0  0  0  0
  136.4201  153.0266  144.8936 C   0  0  0  0  0  0  0  0  0  0  0  0
  134.3201  151.7481  145.9747 C   0  0  0  0  0  0  0  0  0  0  0  0
  135.5438  153.6226  145.8598 C   0  0  0  0  0  0  0  0  0  0  0  0
  136.9236  149.5656  140.2415 C   0  0  0  0  0  0  0  0  0  0  0  0
  134.5757  152.9639  146.4323 C   0  0  0  0  0  0  0  0  0  0  0  0
  1  2  2  0
  1  3  1  0
  3  4  1  0
  4  5  2  0
  2  6  1  0
  3  7  2  0
  7  8  1  0
  5  9  1  0
  8  9  2  0
  9 10  1  0
 10 11  2  0
 10 12  1  0
 11 13  1  0
 12 14  2  0
  6 15  2  0
  7 15  1  0
 13 16  2  0
 14 16  1  0
M  END
$$$$

     RDKit          3D

 16 18  0  0  0  0  0  0  0  0999 V2000
  139.5546  150.5076  140.4455 C   0  0  0  0  0  0  0  0  0  0  0  0
  139.2164  150.0146  139.3742 C   0  0  0  0  0  0  0  0  0  0  0  0
  138.8577  150.3073  141.5866 C   0  0  0  0  0  0  0  0  0  0  0  0
  139.2276  150.3508  142.8915 C   0  0  0  0  0  0  0  0  0  0  0  0
  138.5491  151.2697  143.6827 C   0  0  0  0  0  0  0  0  0  0  0  0
  137.8571  149.4543  139.3226 C   0  0  0  0  0  0  0  0  0  0  0  0
  137.4457  151.5292  143.4243 C   0  0  0  0  0  0  0  0  0  0  0  0
  137.0553  149.6488  140.3767 C   0  0  0  0  0  0  0  0  0  0  0  0
  135.5533  149.4893  140.2130 C   0  0  0  0  0  0  0  0  0  0  0  0
  137.4568  150.3649  141.7859 C   0  0  0  0  0  0  0  0  0  0  0  0
  136.6079  152.3539  144.4397 C   0  0  0  0  0  0  0  0  0  0  0  0
  136.7686  153.6561  144.7675 C   0  0  0  0  0  0  0  0  0  0  0  0
  136.6833  150.9465  142.6040 N   0  0  0  0  0  0  0  0  0  0  0  0
  135.5769  151.8125  145.1455 C   0  0  0  0  0  0  0  0  0  0  0  0
  135.4105  152.3463  146.2598 C   0  0  0  0  0  0  0  0  0  0  0  0
  136.2384  153.8435  146.0285 C   0  0  0  0  0  0  0  0  0  0  0  0
  1  2  2  0
  1  3  1  0
  3  4  1  0
  4  5  2  0
  2  6  1  0
  5  7  1  0
  6  8  2  0
  8  9  1  0
  3 10  2  0
  8 10  1  0
  7 11  1  0
 11 12  1  0
  7 13  2  0
 10 13  1  0
 11 14  2  0
 14 15  1  0
 12 16  2  0
 15 16  1  0
M  END
$$$$

     RDKit          3D

 16 18  0  0  0  0  0  0  0  0999 V2000
  139.5546  150.5076  140.4455 C   0  0  0  0  0  0  0  0  0  0  0  0
  139.2164  150.0146  139.3742 C   0  0  0  0  0  0  0  0  0  0  0  0
  138.8577  150.3073  141.5866 C   0  0  0  0  0  0  0  0  0  0  0  0
  137.9802  149.2985  139.2390 C   0  0  0  0  0  0  0  0  0  0  0  0
  137.2016  149.2056  140.2784 C   0  0  0  0  0  0  0  0  0  0  0  0
  135.7673  148.7987  140.2461 C   0  0  0  0  0  0  0  0  0  0  0  0
  139.4101  150.8793  142.9241 C   0  0  0  0  0  0  0  0  0  0  0  0
  138.3780  151.0479  144.0095 C   0  0  0  0  0  0  0  0  0  0  0  0
  137.1920  151.0047  143.6833 C   0  0  0  0  0  0  0  0  0  0  0  0
  136.2389  151.5051  144.7137 C   0  0  0  0  0  0  0  0  0  0  0  0
  136.4805  151.4470  146.0663 C   0  0  0  0  0  0  0  0  0  0  0  0
  137.6279  149.8942  141.5344 C   0  0  0  0  0  0  0  0  0  0  0  0
  136.7723  150.4724  142.5640 N   0  0  0  0  0  0  0  0  0  0  0  0
  135.1027  152.2429  144.6841 C   0  0  0  0  0  0  0  0  0  0  0  0
  134.8790  153.0280  145.8011 C   0  0  0  0  0  0  0  0  0  0  0  0
  135.7254  152.4023  146.7744 C   0  0  0  0  0  0  0  0  0  0  0  0
  1  2  2  0
  1  3  1  0
  2  4  1  0
  4  5  2  0
  5  6  1  0
  3  7  1  0
  7  8  2  0
  8  9  1  0
  9 10  1  0
 10 11  1  0
  3 12  2  0
  5 12  1  0
  9 13  2  0
 12 13  1  0
 10 14  2  0
 14 15  1  0
 11 16  1  0
 15 16  2  0
M  END
$$$$

     RDKit          3D

 16 18  0  0  0  0  0  0  0  0999 V2000
  139.3429  149.9930  140.5895 C   0  0  0  0  0  0  0  0  0  0  0  0
  138.9526  149.9228  139.3665 C   0  0  0  0  0  0  0  0  0  0  0  0
  138.6128  150.1151  141.6415 C   0  0  0  0  0  0  0  0  0  0  0  0
  137.1849  149.8640  141.8304 C   0  0  0  0  0  0  0  0  0  0  0  0
  136.5144  149.7572  140.5779 C   0  0  0  0  0  0  0  0  0  0  0  0
  139.1166  150.5253  143.0849 C   0  0  0  0  0  0  0  0  0  0  0  0
  138.2341  151.1490  143.8701 C   0  0  0  0  0  0  0  0  0  0  0  0
  136.9087  150.9585  143.7785 C   0  0  0  0  0  0  0  0  0  0  0  0
  136.1432  151.4444  144.9802 C   0  0  0  0  0  0  0  0  0  0  0  0
  137.1435  149.6730  139.2434 C   0  0  0  0  0  0  0  0  0  0  0  0
  136.4317  151.2410  146.2723 C   0  0  0  0  0  0  0  0  0  0  0  0
  136.4143  150.2775  142.8701 C   0  0  0  0  0  0  0  0  0  0  0  0
  135.0204  152.2757  144.8914 C   0  0  0  0  0  0  0  0  0  0  0  0
  134.8830  153.2257  146.0177 C   0  0  0  0  0  0  0  0  0  0  0  0
  135.4553  152.7365  147.1830 C   0  0  0  0  0  0  0  0  0  0  0  0
  136.1599  151.9675  147.3594 C   0  0  0  0  0  0  0  0  0  0  0  0
  1  2  2  0
  1  3  1  0
  3  4  1  0
  4  5  2  0
  3  6  1  0
  6  7  2  0
  7  8  1  0
  8  9  1  0
  2 10  1  0
  5 10  1  0
  9 11  1  0
  4 12  1  0
  8 12  2  0
  9 13  2  0
 13 14  1  0
 14 15  2  0
 11 16  2  0
 15 16  1  0
M  END
$$$$

     RDKit          3D

 16 18  0  0  0  0  0  0  0  0999 V2000
  139.5546  150.5076  140.4455 C   0  0  0  0  0  0  0  0  0  0  0  0
  139.2164  150.0146  139.3742 C   0  0  0  0  0  0  0  0  0  0  0  0
  138.8577  150.3073  141.5866 C   0  0  0  0  0  0  0  0  0  0  0  0
  139.2276  150.3508  142.8915 C   0  0  0  0  0  0  0  0  0  0  0  0
  138.5491  151.2697  143.6827 C   0  0  0  0  0  0  0  0  0  0  0  0
  137.8571  149.4543  139.3226 C   0  0  0  0  0  0  0  0  0  0  0  0
  137.4559  150.0376  141.2281 C   0  0  0  0  0  0  0  0  0  0  0  0
  136.5010  150.2989  142.4542 C   0  0  0  0  0  0  0  0  0  0  0  0
  137.0173  151.0912  143.5205 C   0  0  0  0  0  0  0  0  0  0  0  0
  136.1793  151.7200  144.4687 C   0  0  0  0  0  0  0  0  0  0  0  0
  135.1971  151.0900  145.1048 C   0  0  0  0  0  0  0  0  0  0  0  0
  136.4201  153.0266  144.8936 C   0  0  0  0  0  0  0  0  0  0  0  0
  134.7347  151.6083  146.1797 C   0  0  0  0  0  0  0  0  0  0  0  0
  136.9769  149.4767  140.1293 C   0  0  0  0  0  0  0  0  0  0  0  0
  133.9010  151.0636  147.1576 C   0  0  0  0  0  0  0  0  0  0  0  0
  135.5942  153.2920  146.1441 C   0  0  0  0  0  0  0  0  0  0  0  0
  1  2  2  0
  1  3  1  0
  3  4  1  0
  4  5  2  0
  2  6  1  0
  3  7  2  0
  7  8  1  0
  5  9  1  0
  8  9  2  0
  9 10  1  0
 10 11  2  0
 10 12  1  0
 11 13  1  0
  6 14  2  0
  7 14  1  0
 13 15  1  0
 12 16  1  0
 13 16  1  0
M  END
$$$$

     RDKit          3D

 16 17  0  0  0  0  0  0  0  0999 V2000
  139.5546  150.5076  140.4455 C   0  0  0  0  0  0  0  0  0  0  0  0
  139.2164  150.0146  139.3742 C   0  0  0  0  0  0  0  0  0  0  0  0
  138.8577  150.3073  141.5866 C   0  0  0  0  0  0  0  0  0  0  0  0
  139.2276  150.3508  142.8915 C   0  0  0  0  0  0  0  0  0  0  0  0
  138.3509  151.0011  143.9757 C   0  0  0  0  0  0  0  0  0  0  0  0
  137.3998  151.4284  143.6194 C   0  0  0  0  0  0  0  0  0  0  0  0
  136.5337  152.2387  144.6008 C   0  0  0  0  0  0  0  0  0  0  0  0
  136.9469  151.2646  142.2219 C   0  0  0  0  0  0  0  0  0  0  0  0
  137.5648  150.6466  141.3565 C   0  0  0  0  0  0  0  0  0  0  0  0
  136.9392  153.4523  145.0587 C   0  0  0  0  0  0  0  0  0  0  0  0
  135.4747  151.7207  145.2170 C   0  0  0  0  0  0  0  0  0  0  0  0
  136.1720  154.0699  146.0042 C   0  0  0  0  0  0  0  0  0  0  0  0
  140.0097  150.1651  138.1123 C   0  0  0  0  0  0  0  0  0  0  0  0
  136.4426  155.3468  146.4655 C   0  0  0  0  0  0  0  0  0  0  0  0
  135.1466  153.3562  146.4778 C   0  0  0  0  0  0  0  0  0  0  0  0
  134.7011  152.2253  146.1750 C   0  0  0  0  0  0  0  0  0  0  0  0
  1  2  2  3
  1  3  1  0
  3  4  1  0
  4  5  2  0
  5  6  1  0
  6  7  1  0
  6  8  2  0
  3  9  2  0
  8  9  1  0
  7 10  2  0
  7 11  1  0
 10 12  1  0
  2 13  1  0
 12 14  1  0
 12 15  2  0
 11 16  2  0
 15 16  1  0
M  END
$$$$

     RDKit          3D

 16 18  0  0  0  0  0  0  0  0999 V2000
  139.3429  149.9930  140.5895 C   0  0  0  0  0  0  0  0  0  0  0  0
  138.9526  149.9228  139.3665 C   0  0  0  0  0  0  0  0  0  0  0  0
  138.6128  150.1151  141.6415 C   0  0  0  0  0  0  0  0  0  0  0  0
  137.1849  149.8640  141.8304 C   0  0  0  0  0  0  0  0  0  0  0  0
  136.5144  149.7572  140.5779 C   0  0  0  0  0  0  0  0  0  0  0  0
  139.1166  150.5253  143.0849 C   0  0  0  0  0  0  0  0  0  0  0  0
  138.2341  151.1490  143.8701 C   0  0  0  0  0  0  0  0  0  0  0  0
  136.9087  150.9585  143.7785 C   0  0  0  0  0  0  0  0  0  0  0  0
  135.1108  149.6280  140.3918 C   0  0  0  0  0  0  0  0  0  0  0  0
  136.1195  151.4013  144.9642 C   0  0  0  0  0  0  0  0  0  0  0  0
  136.4276  150.2037  142.9060 C   0  0  0  0  0  0  0  0  0  0  0  0
  136.4077  151.3923  146.2159 C   0  0  0  0  0  0  0  0  0  0  0  0
  134.8911  152.0731  144.7760 C   0  0  0  0  0  0  0  0  0  0  0  0
  137.4473  149.6691  139.3369 C   0  0  0  0  0  0  0  0  0  0  0  0
  134.2833  152.5925  146.0197 C   0  0  0  0  0  0  0  0  0  0  0  0
  135.4680  152.2905  146.9403 C   0  0  0  0  0  0  0  0  0  0  0  0
  1  2  2  0
  1  3  1  0
  3  4  1  0
  4  5  2  0
  3  6  1  0
  6  7  2  0
  7  8  1  0
  5  9  1  0
  8 10  1  0
  4 11  1  0
  8 11  2  0
 10 12  1  0
 10 13  2  0
  2 14  1  0
  5 14  1  0
 13 15  1  0
 12 16  1  0
 15 16  1  0
M  END
$$$$

     RDKit          3D

 16 17  0  0  0  0  0  0  0  0999 V2000
  139.3429  149.9930  140.5895 C   0  0  0  0  0  0  0  0  0  0  0  0
  138.9526  149.9228  139.3665 C   0  0  0  0  0  0  0  0  0  0  0  0
  138.6128  150.1151  141.6415 C   0  0  0  0  0  0  0  0  0  0  0  0
  137.1849  149.8640  141.8304 C   0  0  0  0  0  0  0  0  0  0  0  0
  136.5144  149.7572  140.5779 C   0  0  0  0  0  0  0  0  0  0  0  0
  139.1166  150.5253  143.0849 C   0  0  0  0  0  0  0  0  0  0  0  0
  138.2341  151.1490  143.8701 C   0  0  0  0  0  0  0  0  0  0  0  0
  136.9087  150.9585  143.7785 C   0  0  0  0  0  0  0  0  0  0  0  0
  135.1108  149.6280  140.3918 C   0  0  0  0  0  0  0  0  0  0  0  0
  139.6678  149.8930  138.1749 C   0  0  0  0  0  0  0  0  0  0  0  0
  136.1170  151.4113  144.9631 C   0  0  0  0  0  0  0  0  0  0  0  0
  136.4444  150.2526  142.8927 C   0  0  0  0  0  0  0  0  0  0  0  0
  136.3698  151.3419  146.2156 C   0  0  0  0  0  0  0  0  0  0  0  0
  137.0247  149.3430  139.2014 C   0  0  0  0  0  0  0  0  0  0  0  0
  135.3261  152.4144  144.7983 C   0  0  0  0  0  0  0  0  0  0  0  0
  138.0597  149.6995  138.7082 C   0  0  0  0  0  0  0  0  0  0  0  0
  1  2  2  0
  1  3  1  0
  3  4  1  0
  4  5  2  0
  3  6  1  0
  6  7  2  0
  7  8  1  0
  5  9  1  0
  2 10  1  0
  8 11  1  0
  4 12  1  0
  8 12  2  0
 11 13  1  0
  5 14  1  0
 11 15  1  0
  2 16  1  0
 14 16  2  0
M  END
$$$$

     RDKit          3D

 16 18  0  0  0  0  0  0  0  0999 V2000
  139.5546  150.5076  140.4455 C   0  0  0  0  0  0  0  0  0  0  0  0
  139.2164  150.0146  139.3742 C   0  0  0  0  0  0  0  0  0  0  0  0
  138.8577  150.3073  141.5866 C   0  0  0  0  0  0  0  0  0  0  0  0
  137.9802  149.2985  139.2390 C   0  0  0  0  0  0  0  0  0  0  0  0
  137.2016  149.2056  140.2784 C   0  0  0  0  0  0  0  0  0  0  0  0
  135.7673  148.7987  140.2461 C   0  0  0  0  0  0  0  0  0  0  0  0
  139.4101  150.8793  142.9241 C   0  0  0  0  0  0  0  0  0  0  0  0
  138.3780  151.0479  144.0095 C   0  0  0  0  0  0  0  0  0  0  0  0
  137.1920  151.0047  143.6833 C   0  0  0  0  0  0  0  0  0  0  0  0
  136.2389  151.5051  144.7137 C   0  0  0  0  0  0  0  0  0  0  0  0
  136.4805  151.4470  146.0663 C   0  0  0  0  0  0  0  0  0  0  0  0
  137.6279  149.8942  141.5344 C   0  0  0  0  0  0  0  0  0  0  0  0
  136.7723  150.4724  142.5640 N   0  0  0  0  0  0  0  0  0  0  0  0
  135.1027  152.2429  144.6841 C   0  0  0  0  0  0  0  0  0  0  0  0
  134.8790  153.0280  145.8011 C   0  0  0  0  0  0  0  0  0  0  0  0
  135.7254  152.4023  146.7744 C   0  0  0  0  0  0  0  0  0  0  0  0
  1  2  2  0
  1  3  1  0
  2  4  1  0
  4  5  2  0
  5  6  1  0
  3  7  1  0
  7  8  2  0
  8  9  1  0
  9 10  1  0
 10 11  1  0
  3 12  2  0
  5 12  1  0
  9 13  2  0
 12 13  1  0
 10 14  2  0
 14 15  1  0
 11 16  1  0
 15 16  1  0
M  END
$$$$

     RDKit          3D

 16 18  0  0  0  0  0  0  0  0999 V2000
  139.3429  149.9930  140.5895 C   0  0  0  0  0  0  0  0  0  0  0  0
  138.9526  149.9228  139.3665 C   0  0  0  0  0  0  0  0  0  0  0  0
  138.6128  150.1151  141.6415 C   0  0  0  0  0  0  0  0  0  0  0  0
  137.1849  149.8640  141.8304 C   0  0  0  0  0  0  0  0  0  0  0  0
  136.5144  149.7572  140.5779 C   0  0  0  0  0  0  0  0  0  0  0  0
  139.1166  150.5253  143.0849 C   0  0  0  0  0  0  0  0  0  0  0  0
  138.2341  151.1490  143.8701 C   0  0  0  0  0  0  0  0  0  0  0  0
  136.9087  150.9585  143.7785 C   0  0  0  0  0  0  0  0  0  0  0  0
  139.8171  149.9679  138.2305 C   0  0  0  0  0  0  0  0  0  0  0  0
  136.2940  150.3278  142.7973 C   0  0  0  0  0  0  0  0  0  0  0  0
  136.0731  151.6127  145.0642 C   0  0  0  0  0  0  0  0  0  0  0  0
  136.2292  151.5699  146.1893 C   0  0  0  0  0  0  0  0  0  0  0  0
  135.3063  152.6009  144.7938 C   0  0  0  0  0  0  0  0  0  0  0  0
  137.4608  149.6945  139.3178 C   0  0  0  0  0  0  0  0  0  0  0  0
  134.8840  153.3158  146.0165 C   0  0  0  0  0  0  0  0  0  0  0  0
  135.5166  152.5914  146.7703 N   0  0  0  0  0  0  0  0  0  0  0  0
  1  2  2  0
  1  3  1  0
  3  4  1  0
  4  5  2  0
  3  6  1  0
  6  7  2  0
  7  8  1  0
  2  9  1  0
  4 10  1  0
  8 10  2  0
  8 11  1  0
 11 12  1  0
 11 13  2  0
  2 14  1  0
  5 14  1  0
 13 15  1  0
 12 16  1  0
 15 16  1  0
M  END
$$$$

     RDKit          3D

 16 18  0  0  0  0  0  0  0  0999 V2000
  139.3429  149.9930  140.5895 C   0  0  0  0  0  0  0  0  0  0  0  0
  138.9526  149.9228  139.3665 C   0  0  0  0  0  0  0  0  0  0  0  0
  138.6128  150.1151  141.6415 C   0  0  0  0  0  0  0  0  0  0  0  0
  137.1849  149.8640  141.8304 C   0  0  0  0  0  0  0  0  0  0  0  0
  136.5144  149.7572  140.5779 C   0  0  0  0  0  0  0  0  0  0  0  0
  139.1166  150.5253  143.0849 C   0  0  0  0  0  0  0  0  0  0  0  0
  138.2341  151.1490  143.8701 C   0  0  0  0  0  0  0  0  0  0  0  0
  136.9087  150.9585  143.7785 C   0  0  0  0  0  0  0  0  0  0  0  0
  135.1108  149.6280  140.3918 C   0  0  0  0  0  0  0  0  0  0  0  0
  136.1195  151.4013  144.9642 C   0  0  0  0  0  0  0  0  0  0  0  0
  136.4276  150.2037  142.9060 C   0  0  0  0  0  0  0  0  0  0  0  0
  136.4077  151.3923  146.2159 C   0  0  0  0  0  0  0  0  0  0  0  0
  134.8911  152.0731  144.7760 C   0  0  0  0  0  0  0  0  0  0  0  0
  134.2736  152.5784  146.0159 C   0  0  0  0  0  0  0  0  0  0  0  0
  137.4534  149.6730  139.3332 C   0  0  0  0  0  0  0  0  0  0  0  0
  135.4664  152.2852  146.9423 C   0  0  0  0  0  0  0  0  0  0  0  0
  1  2  2  0
  1  3  1  0
  3  4  1  0
  4  5  2  0
  3  6  1  0
  6  7  2  0
  7  8  1  0
  5  9  1  0
  8 10  1  0
  4 11  1  0
  8 11  2  0
 10 12  1  0
 10 13  2  0
 13 14  1  0
  2 15  1  0
  5 15  1  0
 12 16  2  0
 14 16  1  0
M  END
$$$$

     RDKit          3D

 16 18  0  0  0  0  0  0  0  0999 V2000
  139.3429  149.9930  140.5895 C   0  0  0  0  0  0  0  0  0  0  0  0
  138.9526  149.9228  139.3665 C   0  0  0  0  0  0  0  0  0  0  0  0
  138.6128  150.1151  141.6415 C   0  0  0  0  0  0  0  0  0  0  0  0
  137.5731  149.8751  139.0603 C   0  0  0  0  0  0  0  0  0  0  0  0
  136.7804  149.7030  140.1442 C   0  0  0  0  0  0  0  0  0  0  0  0
  139.1254  150.3586  143.0279 C   0  0  0  0  0  0  0  0  0  0  0  0
  138.2371  150.8994  144.0334 C   0  0  0  0  0  0  0  0  0  0  0  0
  136.9404  150.9973  143.6140 C   0  0  0  0  0  0  0  0  0  0  0  0
  136.5000  150.7098  142.3403 C   0  0  0  0  0  0  0  0  0  0  0  0
  137.2355  150.2075  141.4520 C   0  0  0  0  0  0  0  0  0  0  0  0
  136.0530  151.7111  144.7993 C   0  0  0  0  0  0  0  0  0  0  0  0
  134.9673  151.3280  145.1340 C   0  0  0  0  0  0  0  0  0  0  0  0
  136.6725  152.8694  145.4545 C   0  0  0  0  0  0  0  0  0  0  0  0
  134.3589  151.9058  146.1206 C   0  0  0  0  0  0  0  0  0  0  0  0
  133.2056  151.4862  146.7859 C   0  0  0  0  0  0  0  0  0  0  0  0
  135.1907  152.8289  146.5465 C   0  0  0  0  0  0  0  0  0  0  0  0
  1  2  2  0
  1  3  1  0
  2  4  1  0
  4  5  2  0
  3  6  1  0
  6  7  2  0
  7  8  1  0
  8  9  2  0
  3 10  2  0
  5 10  1  0
  9 10  1  0
  8 11  1  0
 11 12  2  0
 11 13  1  0
 12 14  1  0
 14 15  1  0
 13 16  1  0
 14 16  2  0
M  END
$$$$

     RDKit          3D

 16 18  0  0  0  0  0  0  0  0999 V2000
  139.3429  149.9930  140.5895 C   0  0  0  0  0  0  0  0  0  0  0  0
  138.9526  149.9228  139.3665 C   0  0  0  0  0  0  0  0  0  0  0  0
  138.6128  150.1151  141.6415 C   0  0  0  0  0  0  0  0  0  0  0  0
  137.1849  149.8640  141.8304 C   0  0  0  0  0  0  0  0  0  0  0  0
  136.5144  149.7572  140.5779 C   0  0  0  0  0  0  0  0  0  0  0  0
  139.1166  150.5253  143.0849 C   0  0  0  0  0  0  0  0  0  0  0  0
  138.1694  151.0130  144.0451 C   0  0  0  0  0  0  0  0  0  0  0  0
  136.8764  150.9305  143.8065 C   0  0  0  0  0  0  0  0  0  0  0  0
  136.2382  150.3581  142.9441 C   0  0  0  0  0  0  0  0  0  0  0  0
  136.0817  151.4478  145.0607 C   0  0  0  0  0  0  0  0  0  0  0  0
  136.3207  151.5351  146.2338 C   0  0  0  0  0  0  0  0  0  0  0  0
  139.7357  149.9274  138.2057 C   0  0  0  0  0  0  0  0  0  0  0  0
  134.8168  152.0986  144.7967 C   0  0  0  0  0  0  0  0  0  0  0  0
  134.4743  152.9687  145.8659 C   0  0  0  0  0  0  0  0  0  0  0  0
  135.2207  152.6264  147.0101 C   0  0  0  0  0  0  0  0  0  0  0  0
  137.2751  149.6608  139.2926 C   0  0  0  0  0  0  0  0  0  0  0  0
  1  2  2  0
  1  3  1  0
  3  4  1  0
  4  5  2  0
  3  6  1  0
  6  7  2  0
  7  8  1  0
  4  9  1  0
  8  9  2  0
  8 10  1  0
 10 11  1  0
  2 12  1  0
 10 13  2  0
 13 14  1  0
 11 15  2  0
 14 15  2  0
  2 16  1  0
  5 16  1  0
M  END
$$$$

     RDKit          3D

 16 18  0  0  0  0  0  0  0  0999 V2000
  139.3429  149.9930  140.5895 C   0  0  0  0  0  0  0  0  0  0  0  0
  138.9526  149.9228  139.3665 C   0  0  0  0  0  0  0  0  0  0  0  0
  138.6128  150.1151  141.6415 C   0  0  0  0  0  0  0  0  0  0  0  0
  137.1849  149.8640  141.8304 C   0  0  0  0  0  0  0  0  0  0  0  0
  136.5144  149.7572  140.5779 C   0  0  0  0  0  0  0  0  0  0  0  0
  139.1166  150.5253  143.0849 C   0  0  0  0  0  0  0  0  0  0  0  0
  138.2341  151.1490  143.8701 C   0  0  0  0  0  0  0  0  0  0  0  0
  136.9087  150.9585  143.7785 C   0  0  0  0  0  0  0  0  0  0  0  0
  139.8171  149.9679  138.2305 C   0  0  0  0  0  0  0  0  0  0  0  0
  136.2940  150.3278  142.7973 C   0  0  0  0  0  0  0  0  0  0  0  0
  136.0731  151.6127  145.0642 C   0  0  0  0  0  0  0  0  0  0  0  0
  136.2292  151.5699  146.1893 C   0  0  0  0  0  0  0  0  0  0  0  0
  135.3063  152.6009  144.7938 C   0  0  0  0  0  0  0  0  0  0  0  0
  134.8788  153.3151  146.0046 C   0  0  0  0  0  0  0  0  0  0  0  0
  135.5019  152.5081  147.0490 C   0  0  0  0  0  0  0  0  0  0  0  0
  137.2727  149.6006  139.2892 C   0  0  0  0  0  0  0  0  0  0  0  0
  1  2  2  0
  1  3  1  0
  3  4  1  0
  4  5  2  0
  3  6  1  0
  6  7  2  0
  7  8  1  0
  2  9  1  0
  4 10  1  0
  8 10  2  0
  8 11  1  0
 11 12  1  0
 11 13  2  0
 13 14  1  0
 12 15  2  0
 14 15  1  0
  2 16  1  0
  5 16  1  0
M  END
$$$$

     RDKit          3D

 16 17  0  0  0  0  0  0  0  0999 V2000
  139.3429  149.9930  140.5895 C   0  0  0  0  0  0  0  0  0  0  0  0
  138.9526  149.9228  139.3665 C   0  0  0  0  0  0  0  0  0  0  0  0
  138.6128  150.1151  141.6415 C   0  0  0  0  0  0  0  0  0  0  0  0
  137.1849  149.8640  141.8304 C   0  0  0  0  0  0  0  0  0  0  0  0
  136.5144  149.7572  140.5779 C   0  0  0  0  0  0  0  0  0  0  0  0
  139.1166  150.5253  143.0849 C   0  0  0  0  0  0  0  0  0  0  0  0
  138.2341  151.1490  143.8701 C   0  0  0  0  0  0  0  0  0  0  0  0
  136.9087  150.9585  143.7785 C   0  0  0  0  0  0  0  0  0  0  0  0
  135.1108  149.6280  140.3918 C   0  0  0  0  0  0  0  0  0  0  0  0
  139.6678  149.8930  138.1749 C   0  0  0  0  0  0  0  0  0  0  0  0
  136.1170  151.4113  144.9631 C   0  0  0  0  0  0  0  0  0  0  0  0
  136.4444  150.2526  142.8927 C   0  0  0  0  0  0  0  0  0  0  0  0
  136.3698  151.3419  146.2156 C   0  0  0  0  0  0  0  0  0  0  0  0
  137.0247  149.3430  139.2014 C   0  0  0  0  0  0  0  0  0  0  0  0
  138.0557  149.7001  138.7089 C   0  0  0  0  0  0  0  0  0  0  0  0
  135.3147  152.3870  144.8051 C   0  0  0  0  0  0  0  0  0  0  0  0
  1  2  2  0
  1  3  1  0
  3  4  1  0
  4  5  2  0
  3  6  1  0
  6  7  2  0
  7  8  1  0
  5  9  1  0
  2 10  1  0
  8 11  1  0
  4 12  1  0
  8 12  2  0
 11 13  1  0
  5 14  1  0
  2 15  1  0
 14 15  2  0
 11 16  2  0
M  END
$$$$

     RDKit          3D

 16 18  0  0  0  0  0  0  0  0999 V2000
  139.3429  149.9930  140.5895 C   0  0  0  0  0  0  0  0  0  0  0  0
  138.9526  149.9228  139.3665 C   0  0  0  0  0  0  0  0  0  0  0  0
  138.6128  150.1151  141.6415 C   0  0  0  0  0  0  0  0  0  0  0  0
  137.1849  149.8640  141.8304 C   0  0  0  0  0  0  0  0  0  0  0  0
  136.5144  149.7572  140.5779 C   0  0  0  0  0  0  0  0  0  0  0  0
  139.1166  150.5253  143.0849 C   0  0  0  0  0  0  0  0  0  0  0  0
  138.2341  151.1490  143.8701 C   0  0  0  0  0  0  0  0  0  0  0  0
  136.9087  150.9585  143.7785 C   0  0  0  0  0  0  0  0  0  0  0  0
  135.1108  149.6280  140.3918 C   0  0  0  0  0  0  0  0  0  0  0  0
  136.1195  151.4013  144.9642 C   0  0  0  0  0  0  0  0  0  0  0  0
  136.4276  150.2037  142.9060 C   0  0  0  0  0  0  0  0  0  0  0  0
  136.4077  151.3923  146.2159 C   0  0  0  0  0  0  0  0  0  0  0  0
  134.8911  152.0731  144.7760 C   0  0  0  0  0  0  0  0  0  0  0  0
  137.4473  149.6691  139.3369 C   0  0  0  0  0  0  0  0  0  0  0  0
  134.2833  152.5925  146.0197 C   0  0  0  0  0  0  0  0  0  0  0  0
  135.1304  152.2133  147.0431 C   0  0  0  0  0  0  0  0  0  0  0  0
  1  2  2  0
  1  3  1  0
  3  4  1  0
  4  5  2  0
  3  6  1  0
  6  7  2  0
  7  8  1  0
  5  9  1  0
  8 10  1  0
  4 11  1  0
  8 11  2  0
 10 12  1  0
 10 13  2  0
  2 14  1  0
  5 14  1  0
 13 15  1  0
 12 16  1  0
 15 16  2  0
M  END
$$$$

     RDKit          3D

 16 18  0  0  0  0  0  0  0  0999 V2000
  139.3429  149.9930  140.5895 C   0  0  0  0  0  0  0  0  0  0  0  0
  138.9526  149.9228  139.3665 C   0  0  0  0  0  0  0  0  0  0  0  0
  138.6128  150.1151  141.6415 C   0  0  0  0  0  0  0  0  0  0  0  0
  137.1849  149.8640  141.8304 C   0  0  0  0  0  0  0  0  0  0  0  0
  136.5144  149.7572  140.5779 C   0  0  0  0  0  0  0  0  0  0  0  0
  139.1166  150.5253  143.0849 C   0  0  0  0  0  0  0  0  0  0  0  0
  138.1694  151.0130  144.0451 C   0  0  0  0  0  0  0  0  0  0  0  0
  136.8764  150.9305  143.8065 C   0  0  0  0  0  0  0  0  0  0  0  0
  136.2382  150.3581  142.9441 C   0  0  0  0  0  0  0  0  0  0  0  0
  136.0817  151.4478  145.0607 C   0  0  0  0  0  0  0  0  0  0  0  0
  136.3207  151.5351  146.2338 C   0  0  0  0  0  0  0  0  0  0  0  0
  139.7357  149.9274  138.2057 C   0  0  0  0  0  0  0  0  0  0  0  0
  134.8168  152.0986  144.7967 C   0  0  0  0  0  0  0  0  0  0  0  0
  134.4743  152.9687  145.8659 C   0  0  0  0  0  0  0  0  0  0  0  0
  135.2207  152.6264  147.0101 C   0  0  0  0  0  0  0  0  0  0  0  0
  137.4690  149.6742  139.3199 C   0  0  0  0  0  0  0  0  0  0  0  0
  1  2  2  0
  1  3  1  0
  3  4  1  0
  4  5  2  0
  3  6  1  0
  6  7  2  0
  7  8  1  0
  4  9  1  0
  8  9  2  0
  8 10  1  0
 10 11  1  0
  2 12  1  0
 10 13  2  0
 13 14  1  0
 11 15  1  0
 14 15  2  0
  2 16  1  0
  5 16  1  0
M  END
$$$$

     RDKit          3D

 16 18  0  0  0  0  0  0  0  0999 V2000
  139.3429  149.9930  140.5895 C   0  0  0  0  0  0  0  0  0  0  0  0
  138.9526  149.9228  139.3665 C   0  0  0  0  0  0  0  0  0  0  0  0
  138.6128  150.1151  141.6415 C   0  0  0  0  0  0  0  0  0  0  0  0
  137.1849  149.8640  141.8304 C   0  0  0  0  0  0  0  0  0  0  0  0
  136.5144  149.7572  140.5779 C   0  0  0  0  0  0  0  0  0  0  0  0
  139.1889  150.4046  143.0744 C   0  0  0  0  0  0  0  0  0  0  0  0
  138.2456  150.9517  144.0738 C   0  0  0  0  0  0  0  0  0  0  0  0
  139.6584  149.8786  138.1597 C   0  0  0  0  0  0  0  0  0  0  0  0
  135.0341  149.6412  140.5207 C   0  0  0  0  0  0  0  0  0  0  0  0
  137.2674  151.4393  144.2011 C   0  0  0  0  0  0  0  0  0  0  0  0
  136.9353  149.5773  139.1974 C   0  0  0  0  0  0  0  0  0  0  0  0
  136.3838  151.2624  145.2965 C   0  0  0  0  0  0  0  0  0  0  0  0
  138.0189  149.7516  138.6630 C   0  0  0  0  0  0  0  0  0  0  0  0
  135.0637  151.9088  145.3611 C   0  0  0  0  0  0  0  0  0  0  0  0
  136.5135  152.2136  143.2637 C   0  0  0  0  0  0  0  0  0  0  0  0
  135.1236  152.6559  143.6005 C   0  0  0  0  0  0  0  0  0  0  0  0
  1  2  2  0
  1  3  1  0
  3  4  1  0
  4  5  2  0
  3  6  1  0
  6  7  2  3
  2  8  1  0
  5  9  1  0
  7 10  1  0
  5 11  1  0
 10 12  1  0
  2 13  1  0
  8 13  1  0
 11 13  2  0
 12 14  2  0
 10 15  2  0
 14 16  1  0
 15 16  1  0
M  END
$$$$

     RDKit          3D

 16 18  0  0  0  0  0  0  0  0999 V2000
  139.3429  149.9930  140.5895 C   0  0  0  0  0  0  0  0  0  0  0  0
  138.9526  149.9228  139.3665 C   0  0  0  0  0  0  0  0  0  0  0  0
  138.6128  150.1151  141.6415 C   0  0  0  0  0  0  0  0  0  0  0  0
  137.1849  149.8640  141.8304 C   0  0  0  0  0  0  0  0  0  0  0  0
  136.5144  149.7572  140.5779 C   0  0  0  0  0  0  0  0  0  0  0  0
  139.1166  150.5253  143.0849 C   0  0  0  0  0  0  0  0  0  0  0  0
  138.2341  151.1490  143.8701 C   0  0  0  0  0  0  0  0  0  0  0  0
  136.9087  150.9585  143.7785 C   0  0  0  0  0  0  0  0  0  0  0  0
  135.1108  149.6280  140.3918 C   0  0  0  0  0  0  0  0  0  0  0  0
  136.1195  151.4013  144.9642 C   0  0  0  0  0  0  0  0  0  0  0  0
  136.4276  150.2037  142.9060 C   0  0  0  0  0  0  0  0  0  0  0  0
  136.4077  151.3923  146.2159 C   0  0  0  0  0  0  0  0  0  0  0  0
  134.8911  152.0731  144.7760 C   0  0  0  0  0  0  0  0  0  0  0  0
  134.2736  152.5784  146.0159 C   0  0  0  0  0  0  0  0  0  0  0  0
  135.1178  152.2133  147.0451 C   0  0  0  0  0  0  0  0  0  0  0  0
  137.4562  149.6684  139.3342 C   0  0  0  0  0  0  0  0  0  0  0  0
  1  2  2  0
  1  3  1  0
  3  4  1  0
  4  5  2  0
  3  6  1  0
  6  7  2  0
  7  8  1  0
  5  9  1  0
  8 10  1  0
  4 11  1  0
  8 11  2  0
 10 12  1  0
 10 13  2  0
 13 14  1  0
 12 15  2  0
 14 15  2  0
  2 16  1  0
  5 16  1  0
M  END
$$$$

     RDKit          3D

 16 17  0  0  0  0  0  0  0  0999 V2000
  139.3429  149.9930  140.5895 C   0  0  0  0  0  0  0  0  0  0  0  0
  138.9526  149.9228  139.3665 C   0  0  0  0  0  0  0  0  0  0  0  0
  138.6128  150.1151  141.6415 C   0  0  0  0  0  0  0  0  0  0  0  0
  137.1849  149.8640  141.8304 C   0  0  0  0  0  0  0  0  0  0  0  0
  136.5144  149.7572  140.5779 C   0  0  0  0  0  0  0  0  0  0  0  0
  139.1889  150.4046  143.0744 C   0  0  0  0  0  0  0  0  0  0  0  0
  138.2456  150.9517  144.0738 C   0  0  0  0  0  0  0  0  0  0  0  0
  139.6584  149.8786  138.1597 C   0  0  0  0  0  0  0  0  0  0  0  0
  135.0341  149.6412  140.5207 C   0  0  0  0  0  0  0  0  0  0  0  0
  137.2674  151.4393  144.2011 C   0  0  0  0  0  0  0  0  0  0  0  0
  136.9353  149.5773  139.1974 C   0  0  0  0  0  0  0  0  0  0  0  0
  136.3838  151.2624  145.2965 C   0  0  0  0  0  0  0  0  0  0  0  0
  138.0189  149.7516  138.6630 C   0  0  0  0  0  0  0  0  0  0  0  0
  135.0637  151.9088  145.3611 C   0  0  0  0  0  0  0  0  0  0  0  0
  136.5135  152.2136  143.2637 C   0  0  0  0  0  0  0  0  0  0  0  0
  134.3332  151.8549  146.6174 C   0  0  0  0  0  0  0  0  0  0  0  0
  1  2  2  0
  1  3  1  0
  3  4  1  0
  4  5  2  0
  3  6  1  0
  6  7  2  3
  2  8  1  0
  5  9  1  0
  7 10  1  0
  5 11  1  0
 10 12  1  0
  2 13  1  0
  8 13  1  0
 11 13  2  0
 12 14  2  3
 10 15  2  0
 14 16  1  0
M  END
$$$$

     RDKit          3D

 16 17  0  0  0  0  0  0  0  0999 V2000
  139.5546  150.5076  140.4455 C   0  0  0  0  0  0  0  0  0  0  0  0
  139.2164  150.0146  139.3742 C   0  0  0  0  0  0  0  0  0  0  0  0
  138.8577  150.3073  141.5866 C   0  0  0  0  0  0  0  0  0  0  0  0
  139.2276  150.3508  142.8915 C   0  0  0  0  0  0  0  0  0  0  0  0
  138.3509  151.0011  143.9757 C   0  0  0  0  0  0  0  0  0  0  0  0
  137.3998  151.4284  143.6194 C   0  0  0  0  0  0  0  0  0  0  0  0
  136.5337  152.2387  144.6008 C   0  0  0  0  0  0  0  0  0  0  0  0
  136.9469  151.2646  142.2219 C   0  0  0  0  0  0  0  0  0  0  0  0
  137.5648  150.6466  141.3565 C   0  0  0  0  0  0  0  0  0  0  0  0
  136.9392  153.4523  145.0587 C   0  0  0  0  0  0  0  0  0  0  0  0
  135.4747  151.7207  145.2170 C   0  0  0  0  0  0  0  0  0  0  0  0
  136.1720  154.0699  146.0042 C   0  0  0  0  0  0  0  0  0  0  0  0
  140.0097  150.1651  138.1123 C   0  0  0  0  0  0  0  0  0  0  0  0
  135.2740  153.3676  146.4852 C   0  0  0  0  0  0  0  0  0  0  0  0
  135.1652  150.3424  144.7564 C   0  0  0  0  0  0  0  0  0  0  0  0
  134.7454  152.1677  146.2253 C   0  0  0  0  0  0  0  0  0  0  0  0
  1  2  2  3
  1  3  1  0
  3  4  1  0
  4  5  2  0
  5  6  1  0
  6  7  1  0
  6  8  2  0
  3  9  2  0
  8  9  1  0
  7 10  2  0
  7 11  1  0
 10 12  1  0
  2 13  1  0
 12 14  2  0
 11 15  1  0
 11 16  2  0
 14 16  1  0
M  END
$$$$

     RDKit          3D

 16 17  0  0  0  0  0  0  0  0999 V2000
  139.5546  150.5076  140.4455 C   0  0  0  0  0  0  0  0  0  0  0  0
  139.2164  150.0146  139.3742 C   0  0  0  0  0  0  0  0  0  0  0  0
  138.8577  150.3073  141.5866 C   0  0  0  0  0  0  0  0  0  0  0  0
  139.2276  150.3508  142.8915 C   0  0  0  0  0  0  0  0  0  0  0  0
  138.5491  151.2697  143.6827 C   0  0  0  0  0  0  0  0  0  0  0  0
  137.8571  149.4543  139.3226 C   0  0  0  0  0  0  0  0  0  0  0  0
  137.4457  151.5292  143.4243 C   0  0  0  0  0  0  0  0  0  0  0  0
  137.0553  149.6488  140.3767 C   0  0  0  0  0  0  0  0  0  0  0  0
  135.5533  149.4893  140.2130 C   0  0  0  0  0  0  0  0  0  0  0  0
  137.4568  150.3649  141.7859 C   0  0  0  0  0  0  0  0  0  0  0  0
  136.6079  152.3539  144.4397 C   0  0  0  0  0  0  0  0  0  0  0  0
  136.7686  153.6561  144.7675 C   0  0  0  0  0  0  0  0  0  0  0  0
  136.7225  150.9917  142.5685 N   0  0  0  0  0  0  0  0  0  0  0  0
  135.4075  151.8646  145.0431 C   0  0  0  0  0  0  0  0  0  0  0  0
  134.8323  152.6624  145.9824 C   0  0  0  0  0  0  0  0  0  0  0  0
  133.8761  151.9877  146.9039 C   0  0  0  0  0  0  0  0  0  0  0  0
  1  2  2  0
  1  3  1  0
  3  4  1  0
  4  5  2  0
  2  6  1  0
  5  7  1  0
  6  8  2  0
  8  9  1  0
  3 10  2  0
  8 10  1  0
  7 11  1  0
 11 12  1  0
  7 13  2  0
 10 13  1  0
 11 14  2  3
 14 15  1  0
 15 16  1  0
M  END
$$$$

     RDKit          3D

 16 18  0  0  0  0  0  0  0  0999 V2000
  139.5546  150.5076  140.4455 C   0  0  0  0  0  0  0  0  0  0  0  0
  139.2164  150.0146  139.3742 C   0  0  0  0  0  0  0  0  0  0  0  0
  138.8577  150.3073  141.5866 C   0  0  0  0  0  0  0  0  0  0  0  0
  139.2276  150.3508  142.8915 C   0  0  0  0  0  0  0  0  0  0  0  0
  138.5491  151.2697  143.6827 C   0  0  0  0  0  0  0  0  0  0  0  0
  137.8571  149.4543  139.3226 C   0  0  0  0  0  0  0  0  0  0  0  0
  137.4457  151.5292  143.4243 C   0  0  0  0  0  0  0  0  0  0  0  0
  136.9924  149.5969  140.4311 C   0  0  0  0  0  0  0  0  0  0  0  0
  136.5980  152.3839  144.3652 C   0  0  0  0  0  0  0  0  0  0  0  0
  137.5268  150.1103  141.6056 C   0  0  0  0  0  0  0  0  0  0  0  0
  136.7108  150.8333  142.4297 N   0  0  0  0  0  0  0  0  0  0  0  0
  136.9904  153.6712  144.6008 C   0  0  0  0  0  0  0  0  0  0  0  0
  135.5009  151.9914  145.0880 C   0  0  0  0  0  0  0  0  0  0  0  0
  134.8104  152.9079  145.8663 C   0  0  0  0  0  0  0  0  0  0  0  0
  135.4165  154.1880  146.0300 C   0  0  0  0  0  0  0  0  0  0  0  0
  136.5739  154.5881  145.3786 C   0  0  0  0  0  0  0  0  0  0  0  0
  1  2  2  0
  1  3  1  0
  3  4  1  0
  4  5  2  0
  2  6  1  0
  5  7  1  0
  6  8  2  0
  7  9  1  0
  3 10  2  0
  8 10  1  0
  7 11  2  0
 10 11  1  0
  9 12  2  0
  9 13  1  0
 13 14  2  0
 14 15  1  0
 12 16  1  0
 15 16  2  0
M  END
$$$$

     RDKit          3D

 16 18  0  0  0  0  0  0  0  0999 V2000
  139.5546  150.5076  140.4455 C   0  0  0  0  0  0  0  0  0  0  0  0
  139.2164  150.0146  139.3742 C   0  0  0  0  0  0  0  0  0  0  0  0
  138.8577  150.3073  141.5866 C   0  0  0  0  0  0  0  0  0  0  0  0
  137.9802  149.2985  139.2390 C   0  0  0  0  0  0  0  0  0  0  0  0
  137.2016  149.2056  140.2784 C   0  0  0  0  0  0  0  0  0  0  0  0
  135.7673  148.7987  140.2461 C   0  0  0  0  0  0  0  0  0  0  0  0
  139.4101  150.8793  142.9241 C   0  0  0  0  0  0  0  0  0  0  0  0
  138.3780  151.0479  144.0095 C   0  0  0  0  0  0  0  0  0  0  0  0
  137.1920  151.0047  143.6833 C   0  0  0  0  0  0  0  0  0  0  0  0
  136.2389  151.5051  144.7137 C   0  0  0  0  0  0  0  0  0  0  0  0
  136.4805  151.4470  146.0663 C   0  0  0  0  0  0  0  0  0  0  0  0
  137.6279  149.8942  141.5344 C   0  0  0  0  0  0  0  0  0  0  0  0
  136.7723  150.4724  142.5640 N   0  0  0  0  0  0  0  0  0  0  0  0
  135.1027  152.2429  144.6841 C   0  0  0  0  0  0  0  0  0  0  0  0
  134.5295  152.7791  145.7088 C   0  0  0  0  0  0  0  0  0  0  0  0
  135.3180  152.4095  146.8483 C   0  0  0  0  0  0  0  0  0  0  0  0
  1  2  2  0
  1  3  1  0
  2  4  1  0
  4  5  2  0
  5  6  1  0
  3  7  1  0
  7  8  2  0
  8  9  1  0
  9 10  1  0
 10 11  1  0
  3 12  2  0
  5 12  1  0
  9 13  2  0
 12 13  1  0
 10 14  2  0
 14 15  1  0
 11 16  2  0
 15 16  2  0
M  END
$$$$

     RDKit          3D

 16 17  0  0  0  0  0  0  0  0999 V2000
  139.5546  150.5076  140.4455 C   0  0  0  0  0  0  0  0  0  0  0  0
  139.2164  150.0146  139.3742 C   0  0  0  0  0  0  0  0  0  0  0  0
  138.8577  150.3073  141.5866 C   0  0  0  0  0  0  0  0  0  0  0  0
  139.2276  150.3508  142.8915 C   0  0  0  0  0  0  0  0  0  0  0  0
  138.3509  151.0011  143.9757 C   0  0  0  0  0  0  0  0  0  0  0  0
  137.3998  151.4284  143.6194 C   0  0  0  0  0  0  0  0  0  0  0  0
  136.5337  152.2387  144.6008 C   0  0  0  0  0  0  0  0  0  0  0  0
  136.9469  151.2646  142.2219 C   0  0  0  0  0  0  0  0  0  0  0  0
  137.5648  150.6466  141.3565 C   0  0  0  0  0  0  0  0  0  0  0  0
  136.9392  153.4523  145.0587 C   0  0  0  0  0  0  0  0  0  0  0  0
  135.4747  151.7207  145.2170 C   0  0  0  0  0  0  0  0  0  0  0  0
  136.1720  154.0699  146.0042 C   0  0  0  0  0  0  0  0  0  0  0  0
  140.0097  150.1651  138.1123 C   0  0  0  0  0  0  0  0  0  0  0  0
  135.2740  153.3676  146.4852 C   0  0  0  0  0  0  0  0  0  0  0  0
  134.5526  153.9605  147.7513 C   0  0  0  0  0  0  0  0  0  0  0  0
  134.7492  152.0942  146.1104 C   0  0  0  0  0  0  0  0  0  0  0  0
  1  2  2  3
  1  3  1  0
  3  4  1  0
  4  5  2  0
  5  6  1  0
  6  7  1  0
  6  8  2  0
  3  9  2  0
  8  9  1  0
  7 10  2  0
  7 11  1  0
 10 12  1  0
  2 13  1  0
 12 14  2  0
 14 15  1  0
 11 16  2  0
 14 16  1  0
M  END
$$$$

     RDKit          3D

 16 17  0  0  0  0  0  0  0  0999 V2000
  139.5546  150.5076  140.4455 C   0  0  0  0  0  0  0  0  0  0  0  0
  139.2164  150.0146  139.3742 C   0  0  0  0  0  0  0  0  0  0  0  0
  138.8577  150.3073  141.5866 C   0  0  0  0  0  0  0  0  0  0  0  0
  139.2276  150.3508  142.8915 C   0  0  0  0  0  0  0  0  0  0  0  0
  138.3509  151.0011  143.9757 C   0  0  0  0  0  0  0  0  0  0  0  0
  137.3998  151.4284  143.6194 C   0  0  0  0  0  0  0  0  0  0  0  0
  136.5337  152.2387  144.6008 C   0  0  0  0  0  0  0  0  0  0  0  0
  137.8483  149.5149  139.3370 C   0  0  0  0  0  0  0  0  0  0  0  0
  136.9622  151.2207  142.2472 C   0  0  0  0  0  0  0  0  0  0  0  0
  137.2887  149.0194  138.2592 C   0  0  0  0  0  0  0  0  0  0  0  0
  137.1487  149.7377  140.5435 C   0  0  0  0  0  0  0  0  0  0  0  0
  135.3866  151.6892  145.1237 C   0  0  0  0  0  0  0  0  0  0  0  0
  137.4719  150.4385  141.5420 C   0  0  0  0  0  0  0  0  0  0  0  0
  137.0474  153.4070  145.0147 C   0  0  0  0  0  0  0  0  0  0  0  0
  135.0959  152.2272  146.3276 C   0  0  0  0  0  0  0  0  0  0  0  0
  134.1117  151.6012  147.1110 C   0  0  0  0  0  0  0  0  0  0  0  0
  1  2  2  0
  1  3  1  0
  3  4  1  0
  4  5  2  0
  5  6  1  0
  6  7  1  0
  2  8  1  0
  6  9  2  0
  8 10  1  0
  8 11  2  0
  7 12  2  3
  3 13  2  0
  9 13  1  0
 11 13  1  0
  7 14  1  0
 12 15  1  0
 15 16  1  0
M  END
$$$$

     RDKit          3D

 16 18  0  0  0  0  0  0  0  0999 V2000
  139.5546  150.5076  140.4455 C   0  0  0  0  0  0  0  0  0  0  0  0
  139.2164  150.0146  139.3742 C   0  0  0  0  0  0  0  0  0  0  0  0
  138.8577  150.3073  141.5866 C   0  0  0  0  0  0  0  0  0  0  0  0
  139.2276  150.3508  142.8915 C   0  0  0  0  0  0  0  0  0  0  0  0
  138.5491  151.2697  143.6827 C   0  0  0  0  0  0  0  0  0  0  0  0
  137.8571  149.4543  139.3226 C   0  0  0  0  0  0  0  0  0  0  0  0
  137.4559  150.0376  141.2281 C   0  0  0  0  0  0  0  0  0  0  0  0
  136.5010  150.2989  142.4542 C   0  0  0  0  0  0  0  0  0  0  0  0
  137.0173  151.0912  143.5205 C   0  0  0  0  0  0  0  0  0  0  0  0
  136.1793  151.7200  144.4687 C   0  0  0  0  0  0  0  0  0  0  0  0
  137.4744  148.9137  138.0215 C   0  0  0  0  0  0  0  0  0  0  0  0
  135.2124  151.0786  145.1206 C   0  0  0  0  0  0  0  0  0  0  0  0
  136.4163  153.0302  144.8961 C   0  0  0  0  0  0  0  0  0  0  0  0
  136.9504  149.6305  140.3331 N   0  0  0  0  0  0  0  0  0  0  0  0
  134.7701  151.6328  146.1841 C   0  0  0  0  0  0  0  0  0  0  0  0
  135.6763  153.2328  146.1605 C   0  0  0  0  0  0  0  0  0  0  0  0
  1  2  2  0
  1  3  1  0
  3  4  1  0
  4  5  2  0
  2  6  1  0
  3  7  2  0
  7  8  1  0
  5  9  1  0
  8  9  2  0
  9 10  1  0
  6 11  1  0
 10 12  2  0
 10 13  1  0
  6 14  2  0
  7 14  1  0
 12 15  1  0
 13 16  1  0
 15 16  1  0
M  END
$$$$
