
     RDKit          3D

  9  9  0  0  0  0  0  0  0  0999 V2000
  140.3037  150.2154  139.4789 Cl  0  0  0  0  0  0  0  0  0  0  0  0
  138.6781  150.1864  140.5322 C   0  0  0  0  0  0  0  0  0  0  0  0
  137.6383  149.3835  140.0932 C   0  0  0  0  0  0  0  0  0  0  0  0
  138.7726  150.9278  141.6514 C   0  0  0  0  0  0  0  0  0  0  0  0
  138.1293  150.9128  142.4416 C   0  0  0  0  0  0  0  0  0  0  0  0
  136.8251  150.0712  142.3054 C   0  0  0  0  0  0  0  0  0  0  0  0
  138.0660  151.6657  143.9593 C   0  0  0  0  0  0  0  0  0  0  0  0
  137.4698  148.8520  138.9110 C   0  0  0  0  0  0  0  0  0  0  0  0
  136.5614  149.5924  141.1751 C   0  0  0  0  0  0  0  0  0  0  0  0
  1  2  1  0
  2  3  1  0
  2  4  2  0
  4  5  1  0
  5  6  2  0
  5  7  1  0
  3  8  1  0
  3  9  2  0
  6  9  1  0
M  END
$$$$

     RDKit          3D

  9  9  0  0  0  0  0  0  0  0999 V2000
  140.3037  150.2154  139.4789 Cl  0  0  0  0  0  0  0  0  0  0  0  0
  138.6781  150.1864  140.5322 C   0  0  0  0  0  0  0  0  0  0  0  0
  137.6383  149.3835  140.0932 C   0  0  0  0  0  0  0  0  0  0  0  0
  138.7726  150.9278  141.6514 C   0  0  0  0  0  0  0  0  0  0  0  0
  138.1293  150.9128  142.4416 C   0  0  0  0  0  0  0  0  0  0  0  0
  137.5753  148.9052  138.7236 C   0  0  0  0  0  0  0  0  0  0  0  0
  136.7592  150.1928  142.4640 C   0  0  0  0  0  0  0  0  0  0  0  0
  136.4388  149.5253  141.0706 C   0  0  0  0  0  0  0  0  0  0  0  0
  138.2613  151.5813  144.1293 Cl  0  0  0  0  0  0  0  0  0  0  0  0
  1  2  1  0
  2  3  1  0
  2  4  2  0
  4  5  1  0
  3  6  1  0
  5  7  2  0
  3  8  2  0
  7  8  1  0
  5  9  1  0
M  END
$$$$

     RDKit          3D

  9  9  0  0  0  0  0  0  0  0999 V2000
  139.3434  149.9921  140.5876 C   0  0  0  0  0  0  0  0  0  0  0  0
  138.9518  149.9236  139.3657 C   0  0  0  0  0  0  0  0  0  0  0  0
  138.6168  150.1115  141.6414 C   0  0  0  0  0  0  0  0  0  0  0  0
  137.1898  149.8671  141.8329 C   0  0  0  0  0  0  0  0  0  0  0  0
  136.5148  149.7637  140.5812 C   0  0  0  0  0  0  0  0  0  0  0  0
  139.7320  149.8456  138.1910 C   0  0  0  0  0  0  0  0  0  0  0  0
  137.0776  149.7022  139.2400 C   0  0  0  0  0  0  0  0  0  0  0  0
  139.1863  150.3315  143.0783 C   0  0  0  0  0  0  0  0  0  0  0  0
  138.2429  150.9079  144.1360 C   0  0  0  0  0  0  0  0  0  0  0  0
  1  2  2  0
  1  3  1  0
  3  4  1  0
  4  5  2  0
  2  6  1  0
  2  7  1  0
  5  7  1  0
  3  8  1  0
  8  9  1  0
M  END
$$$$

     RDKit          3D

  9  9  0  0  0  0  0  0  0  0999 V2000
  138.9995  149.7631  140.3651 C   0  0  0  0  0  0  0  0  0  0  0  0
  138.7139  149.5446  139.1245 C   0  0  0  0  0  0  0  0  0  0  0  0
  138.1832  150.1045  141.2841 C   0  0  0  0  0  0  0  0  0  0  0  0
  137.3206  149.5905  138.6810 C   0  0  0  0  0  0  0  0  0  0  0  0
  136.4659  149.5689  139.6582 C   0  0  0  0  0  0  0  0  0  0  0  0
  134.9940  149.6185  139.5080 O   0  0  0  0  0  0  0  0  0  0  0  0
  138.6326  150.4806  142.6702 C   0  0  0  0  0  0  0  0  0  0  0  0
  138.1535  151.3667  143.3298 C   0  0  0  0  0  0  0  0  0  0  0  0
  136.8205  150.0932  141.0418 C   0  0  0  0  0  0  0  0  0  0  0  0
  1  2  2  0
  1  3  1  0
  2  4  1  0
  4  5  2  0
  5  6  1  0
  3  7  1  0
  7  8  2  0
  3  9  2  0
  5  9  1  0
M  END
$$$$

     RDKit          3D

  9  9  0  0  0  0  0  0  0  0999 V2000
  140.3037  150.2154  139.4789 Cl  0  0  0  0  0  0  0  0  0  0  0  0
  138.6781  150.1864  140.5322 C   0  0  0  0  0  0  0  0  0  0  0  0
  137.6383  149.3835  140.0932 C   0  0  0  0  0  0  0  0  0  0  0  0
  139.0323  150.8827  141.6188 C   0  0  0  0  0  0  0  0  0  0  0  0
  136.6579  149.6431  140.8207 C   0  0  0  0  0  0  0  0  0  0  0  0
  138.0370  151.0137  142.5266 C   0  0  0  0  0  0  0  0  0  0  0  0
  135.2660  149.2325  140.5335 C   0  0  0  0  0  0  0  0  0  0  0  0
  136.7466  150.4384  142.1614 C   0  0  0  0  0  0  0  0  0  0  0  0
  138.1578  151.6900  144.0893 Cl  0  0  0  0  0  0  0  0  0  0  0  0
  1  2  1  0
  2  3  2  0
  2  4  1  0
  3  5  1  0
  4  6  2  0
  5  7  1  0
  5  8  2  0
  6  8  1  0
  6  9  1  0
M  END
$$$$

     RDKit          3D

  9  9  0  0  0  0  0  0  0  0999 V2000
  140.3037  150.2154  139.4789 Cl  0  0  0  0  0  0  0  0  0  0  0  0
  138.6781  150.1864  140.5322 C   0  0  0  0  0  0  0  0  0  0  0  0
  137.6383  149.3835  140.0932 C   0  0  0  0  0  0  0  0  0  0  0  0
  139.2398  150.7167  141.5765 C   0  0  0  0  0  0  0  0  0  0  0  0
  138.3576  151.0493  142.3779 C   0  0  0  0  0  0  0  0  0  0  0  0
  136.9512  150.5097  142.2939 C   0  0  0  0  0  0  0  0  0  0  0  0
  138.4910  151.8371  143.8148 C   0  0  0  0  0  0  0  0  0  0  0  0
  135.8609  150.7873  143.2353 C   0  0  0  0  0  0  0  0  0  0  0  0
  136.5568  149.7332  140.9491 C   0  0  0  0  0  0  0  0  0  0  0  0
  1  2  1  0
  2  3  1  0
  2  4  2  0
  4  5  1  0
  5  6  2  0
  5  7  1  0
  6  8  1  0
  3  9  2  0
  6  9  1  0
M  END
$$$$

     RDKit          3D

  9  9  0  0  0  0  0  0  0  0999 V2000
  139.5359  150.8909  142.2321 C   0  0  0  0  0  0  0  0  0  0  0  0
  139.0142  150.3964  141.0601 C   0  0  0  0  0  0  0  0  0  0  0  0
  138.6975  150.9512  143.4052 C   0  0  0  0  0  0  0  0  0  0  0  0
  137.7125  149.9444  141.0467 C   0  0  0  0  0  0  0  0  0  0  0  0
  137.3892  150.5405  143.3319 C   0  0  0  0  0  0  0  0  0  0  0  0
  136.8760  150.0577  142.1551 C   0  0  0  0  0  0  0  0  0  0  0  0
  136.5309  150.7331  144.5206 C   0  0  0  0  0  0  0  0  0  0  0  0
  139.9108  150.3800  139.7715 C   0  0  0  0  0  0  0  0  0  0  0  0
  139.3618  150.3723  138.6079 C   0  0  0  0  0  0  0  0  0  0  0  0
  1  2  2  0
  1  3  1  0
  2  4  1  0
  3  5  2  0
  4  6  2  0
  5  6  1  0
  5  7  1  0
  2  8  1  0
  8  9  2  0
M  END
$$$$

     RDKit          3D

  9  9  0  0  0  0  0  0  0  0999 V2000
  140.3037  150.2154  139.4789 Cl  0  0  0  0  0  0  0  0  0  0  0  0
  138.6781  150.1864  140.5322 C   0  0  0  0  0  0  0  0  0  0  0  0
  137.6383  149.3835  140.0932 C   0  0  0  0  0  0  0  0  0  0  0  0
  136.4381  149.4572  140.8191 C   0  0  0  0  0  0  0  0  0  0  0  0
  138.8130  150.8921  141.7043 C   0  0  0  0  0  0  0  0  0  0  0  0
  135.2492  148.9579  140.1871 C   0  0  0  0  0  0  0  0  0  0  0  0
  136.6091  150.4171  141.7375 C   0  0  0  0  0  0  0  0  0  0  0  0
  137.6165  150.9783  142.4154 C   0  0  0  0  0  0  0  0  0  0  0  0
  137.6200  151.8852  143.7776 C   0  0  0  0  0  0  0  0  0  0  0  0
  1  2  1  0
  2  3  2  0
  3  4  1  0
  2  5  1  0
  4  6  1  0
  4  7  2  0
  5  8  2  0
  7  8  1  0
  8  9  1  0
M  END
$$$$

     RDKit          3D

  9  9  0  0  0  0  0  0  0  0999 V2000
  139.2622  151.0924  142.4036 C   0  0  0  0  0  0  0  0  0  0  0  0
  138.8614  152.1309  142.9028 C   0  0  0  0  0  0  0  0  0  0  0  0
  137.7834  151.8919  143.8933 C   0  0  0  0  0  0  0  0  0  0  0  0
  137.3599  150.5399  144.0621 C   0  0  0  0  0  0  0  0  0  0  0  0
  137.9421  149.6013  143.5569 C   0  0  0  0  0  0  0  0  0  0  0  0
  140.3716  151.2617  141.3268 C   0  0  0  0  0  0  0  0  0  0  0  0
  140.1219  150.4484  140.0533 C   0  0  0  0  0  0  0  0  0  0  0  0
  138.9153  149.7304  142.5165 C   0  0  0  0  0  0  0  0  0  0  0  0
  139.0933  149.7186  139.8204 C   0  0  0  0  0  0  0  0  0  0  0  0
  1  2  1  0
  2  3  2  0
  3  4  1  0
  4  5  2  0
  1  6  1  0
  6  7  2  3
  1  8  2  0
  5  8  1  0
  7  9  1  0
M  END
$$$$

     RDKit          3D

  9  9  0  0  0  0  0  0  0  0999 V2000
  140.3037  150.2154  139.4789 Cl  0  0  0  0  0  0  0  0  0  0  0  0
  138.6781  150.1864  140.5322 C   0  0  0  0  0  0  0  0  0  0  0  0
  137.6383  149.3835  140.0932 C   0  0  0  0  0  0  0  0  0  0  0  0
  136.4381  149.4572  140.8191 C   0  0  0  0  0  0  0  0  0  0  0  0
  139.1310  150.7531  141.5085 C   0  0  0  0  0  0  0  0  0  0  0  0
  138.1124  150.7972  142.6518 C   0  0  0  0  0  0  0  0  0  0  0  0
  136.8765  150.4821  142.6413 C   0  0  0  0  0  0  0  0  0  0  0  0
  136.0830  150.0225  141.8824 C   0  0  0  0  0  0  0  0  0  0  0  0
  138.5953  151.5959  143.9875 C   0  0  0  0  0  0  0  0  0  0  0  0
  1  2  1  0
  2  3  2  0
  3  4  1  0
  2  5  1  0
  5  6  2  0
  6  7  1  0
  4  8  2  0
  7  8  2  0
  6  9  1  0
M  END
$$$$

     RDKit          3D

  9  9  0  0  0  0  0  0  0  0999 V2000
  138.7095  151.1467  142.6277 C   0  0  0  0  0  0  0  0  0  0  0  0
  138.5278  151.9381  143.5113 C   0  0  0  0  0  0  0  0  0  0  0  0
  137.3840  151.6610  144.3967 C   0  0  0  0  0  0  0  0  0  0  0  0
  136.7653  150.3888  144.2991 C   0  0  0  0  0  0  0  0  0  0  0  0
  138.1237  149.8686  142.3074 C   0  0  0  0  0  0  0  0  0  0  0  0
  138.4285  149.0768  141.2819 C   0  0  0  0  0  0  0  0  0  0  0  0
  138.5072  149.8311  140.0610 C   0  0  0  0  0  0  0  0  0  0  0  0
  137.1293  149.7017  143.2251 C   0  0  0  0  0  0  0  0  0  0  0  0
  138.3499  149.0954  138.8175 C   0  0  0  0  0  0  0  0  0  0  0  0
  1  2  1  0
  2  3  2  0
  3  4  1  0
  1  5  2  0
  5  6  1  0
  6  7  1  0
  4  8  2  0
  5  8  1  0
  7  9  1  0
M  END
$$$$

     RDKit          3D

  9  9  0  0  0  0  0  0  0  0999 V2000
  139.2622  151.0924  142.4036 C   0  0  0  0  0  0  0  0  0  0  0  0
  138.8614  152.1309  142.9028 C   0  0  0  0  0  0  0  0  0  0  0  0
  137.9130  151.7978  143.7819 C   0  0  0  0  0  0  0  0  0  0  0  0
  138.8285  150.3994  141.6024 C   0  0  0  0  0  0  0  0  0  0  0  0
  137.2808  150.5108  143.6578 C   0  0  0  0  0  0  0  0  0  0  0  0
  139.3626  149.8200  140.3412 C   0  0  0  0  0  0  0  0  0  0  0  0
  136.3248  150.1322  144.6202 C   0  0  0  0  0  0  0  0  0  0  0  0
  138.6463  149.7315  139.3067 C   0  0  0  0  0  0  0  0  0  0  0  0
  137.5776  149.8962  142.3794 C   0  0  0  0  0  0  0  0  0  0  0  0
  1  2  1  0
  2  3  2  0
  1  4  2  0
  3  5  1  0
  4  6  1  0
  5  7  1  0
  6  8  2  0
  4  9  1  0
  5  9  2  0
M  END
$$$$

     RDKit          3D

  9  8  0  0  0  0  0  0  0  0999 V2000
  138.7095  151.1467  142.6277 C   0  0  0  0  0  0  0  0  0  0  0  0
  138.5278  151.9381  143.5113 C   0  0  0  0  0  0  0  0  0  0  0  0
  137.3840  151.6610  144.3967 C   0  0  0  0  0  0  0  0  0  0  0  0
  136.8235  152.7282  145.2594 C   0  0  0  0  0  0  0  0  0  0  0  0
  139.0204  151.5235  141.1664 C   0  0  0  0  0  0  0  0  0  0  0  0
  137.2131  153.9336  145.0255 C   0  0  0  0  0  0  0  0  0  0  0  0
  139.5949  150.5314  140.4331 C   0  0  0  0  0  0  0  0  0  0  0  0
  135.5025  152.4559  145.4181 C   0  0  0  0  0  0  0  0  0  0  0  0
  139.3341  150.4060  139.0025 C   0  0  0  0  0  0  0  0  0  0  0  0
  1  2  1  0
  2  3  2  3
  3  4  1  0
  1  5  1  0
  4  6  1  0
  5  7  1  0
  4  8  1  0
  7  9  1  0
M  END
$$$$

     RDKit          3D

  9  9  0  0  0  0  0  0  0  0999 V2000
  139.5547  150.5069  140.4449 C   0  0  0  0  0  0  0  0  0  0  0  0
  139.2163  150.0152  139.3729 C   0  0  0  0  0  0  0  0  0  0  0  0
  138.8578  150.3067  141.5860 C   0  0  0  0  0  0  0  0  0  0  0  0
  137.9790  149.2997  139.2383 C   0  0  0  0  0  0  0  0  0  0  0  0
  137.5546  148.8181  137.9582 C   0  0  0  0  0  0  0  0  0  0  0  0
  137.1984  149.2494  140.4328 C   0  0  0  0  0  0  0  0  0  0  0  0
  139.3435  150.8840  142.9294 C   0  0  0  0  0  0  0  0  0  0  0  0
  135.7950  148.8275  140.3620 C   0  0  0  0  0  0  0  0  0  0  0  0
  137.5896  149.7638  141.6900 C   0  0  0  0  0  0  0  0  0  0  0  0
  1  2  2  0
  1  3  1  0
  2  4  1  0
  4  5  1  0
  4  6  2  0
  3  7  1  0
  6  8  1  0
  3  9  2  0
  6  9  1  0
M  END
$$$$

     RDKit          3D

  9  9  0  0  0  0  0  0  0  0999 V2000
  138.7095  151.1467  142.6277 C   0  0  0  0  0  0  0  0  0  0  0  0
  138.5278  151.9381  143.5113 C   0  0  0  0  0  0  0  0  0  0  0  0
  137.3924  151.8109  144.0738 C   0  0  0  0  0  0  0  0  0  0  0  0
  136.5960  150.6215  143.9730 C   0  0  0  0  0  0  0  0  0  0  0  0
  137.9801  149.9621  142.2574 C   0  0  0  0  0  0  0  0  0  0  0  0
  136.5091  152.7523  145.0869 C   0  0  0  0  0  0  0  0  0  0  0  0
  136.8373  153.9883  145.0810 C   0  0  0  0  0  0  0  0  0  0  0  0
  136.8995  149.6661  143.0155 C   0  0  0  0  0  0  0  0  0  0  0  0
  135.5804  152.1825  145.8349 C   0  0  0  0  0  0  0  0  0  0  0  0
  1  2  1  0
  2  3  2  0
  3  4  1  0
  1  5  2  0
  3  6  1  0
  6  7  2  0
  4  8  2  0
  5  8  1  0
  6  9  1  0
M  END
$$$$

     RDKit          3D

  9  8  0  0  0  0  0  0  0  0999 V2000
  139.5547  150.5069  140.4449 C   0  0  0  0  0  0  0  0  0  0  0  0
  139.2163  150.0152  139.3729 C   0  0  0  0  0  0  0  0  0  0  0  0
  138.8578  150.3067  141.5860 C   0  0  0  0  0  0  0  0  0  0  0  0
  139.2256  150.3492  142.8903 C   0  0  0  0  0  0  0  0  0  0  0  0
  138.3524  151.0108  143.9708 C   0  0  0  0  0  0  0  0  0  0  0  0
  140.0070  149.8439  138.1411 C   0  0  0  0  0  0  0  0  0  0  0  0
  137.3349  151.3737  143.6021 C   0  0  0  0  0  0  0  0  0  0  0  0
  136.4699  152.1473  144.6238 C   0  0  0  0  0  0  0  0  0  0  0  0
  135.2883  151.5147  145.1439 C   0  0  0  0  0  0  0  0  0  0  0  0
  1  2  2  3
  1  3  1  0
  3  4  1  0
  4  5  2  3
  2  6  1  0
  5  7  1  0
  7  8  1  0
  8  9  1  0
M  END
$$$$

     RDKit          3D

  9  9  0  0  0  0  0  0  0  0999 V2000
  138.9995  149.7631  140.3651 C   0  0  0  0  0  0  0  0  0  0  0  0
  138.7139  149.5446  139.1245 C   0  0  0  0  0  0  0  0  0  0  0  0
  138.1832  150.1045  141.2841 C   0  0  0  0  0  0  0  0  0  0  0  0
  137.3206  149.5905  138.6810 C   0  0  0  0  0  0  0  0  0  0  0  0
  136.9836  149.1476  137.4587 O   0  0  0  0  0  0  0  0  0  0  0  0
  136.4203  149.7745  139.7216 C   0  0  0  0  0  0  0  0  0  0  0  0
  138.6618  150.4910  142.6716 C   0  0  0  0  0  0  0  0  0  0  0  0
  135.0159  149.8715  139.5580 O   0  0  0  0  0  0  0  0  0  0  0  0
  136.7631  150.1232  141.0996 C   0  0  0  0  0  0  0  0  0  0  0  0
  1  2  2  0
  1  3  1  0
  2  4  1  0
  4  5  1  0
  4  6  2  0
  3  7  1  0
  6  8  1  0
  3  9  2  0
  6  9  1  0
M  END
$$$$

     RDKit          3D

  9  9  0  0  0  0  0  0  0  0999 V2000
  139.3434  149.9921  140.5876 C   0  0  0  0  0  0  0  0  0  0  0  0
  138.9518  149.9236  139.3657 C   0  0  0  0  0  0  0  0  0  0  0  0
  138.6168  150.1115  141.6414 C   0  0  0  0  0  0  0  0  0  0  0  0
  137.1898  149.8671  141.8329 C   0  0  0  0  0  0  0  0  0  0  0  0
  136.5148  149.7637  140.5812 C   0  0  0  0  0  0  0  0  0  0  0  0
  139.2029  150.3868  143.0709 C   0  0  0  0  0  0  0  0  0  0  0  0
  137.2039  149.7157  139.2269 C   0  0  0  0  0  0  0  0  0  0  0  0
  138.2479  150.8992  144.1242 C   0  0  0  0  0  0  0  0  0  0  0  0
  137.3231  150.2382  144.6076 C   0  0  0  0  0  0  0  0  0  0  0  0
  1  2  2  0
  1  3  1  0
  3  4  1  0
  4  5  2  0
  3  6  1  0
  2  7  1  0
  5  7  1  0
  6  8  1  0
  8  9  2  0
M  END
$$$$

     RDKit          3D

  9  8  0  0  0  0  0  0  0  0999 V2000
  138.7095  151.1467  142.6277 C   0  0  0  0  0  0  0  0  0  0  0  0
  138.5278  151.9381  143.5113 C   0  0  0  0  0  0  0  0  0  0  0  0
  137.3840  151.6610  144.3967 C   0  0  0  0  0  0  0  0  0  0  0  0
  136.8235  152.7282  145.2594 C   0  0  0  0  0  0  0  0  0  0  0  0
  139.0204  151.5235  141.1664 C   0  0  0  0  0  0  0  0  0  0  0  0
  137.2131  153.9336  145.0255 C   0  0  0  0  0  0  0  0  0  0  0  0
  139.5949  150.5314  140.4331 C   0  0  0  0  0  0  0  0  0  0  0  0
  139.9189  150.7459  139.1082 C   0  0  0  0  0  0  0  0  0  0  0  0
  136.0780  152.3942  146.0146 O   0  0  0  0  0  0  0  0  0  0  0  0
  1  2  1  0
  2  3  2  3
  3  4  1  0
  1  5  1  0
  4  6  1  0
  5  7  1  0
  7  8  1  0
  4  9  2  0
M  END
$$$$

     RDKit          3D

  9  9  0  0  0  0  0  0  0  0999 V2000
  139.2622  151.0924  142.4036 C   0  0  0  0  0  0  0  0  0  0  0  0
  138.8614  152.1309  142.9028 C   0  0  0  0  0  0  0  0  0  0  0  0
  137.9130  151.7978  143.7819 C   0  0  0  0  0  0  0  0  0  0  0  0
  138.8285  150.3994  141.6024 C   0  0  0  0  0  0  0  0  0  0  0  0
  137.6660  149.9523  141.7639 C   0  0  0  0  0  0  0  0  0  0  0  0
  136.7065  150.4894  142.6494 C   0  0  0  0  0  0  0  0  0  0  0  0
  136.8370  151.3343  143.7067 C   0  0  0  0  0  0  0  0  0  0  0  0
  135.7456  151.5094  144.5847 C   0  0  0  0  0  0  0  0  0  0  0  0
  135.8793  152.2580  145.5696 O   0  0  0  0  0  0  0  0  0  0  0  0
  1  2  1  0
  2  3  2  0
  1  4  2  0
  4  5  1  0
  5  6  2  0
  3  7  1  0
  6  7  1  0
  7  8  1  0
  8  9  2  0
M  END
$$$$

     RDKit          3D

  9  9  0  0  0  0  0  0  0  0999 V2000
  139.5359  150.8909  142.2321 C   0  0  0  0  0  0  0  0  0  0  0  0
  139.0142  150.3964  141.0601 C   0  0  0  0  0  0  0  0  0  0  0  0
  138.6975  150.9512  143.4052 C   0  0  0  0  0  0  0  0  0  0  0  0
  137.7125  149.9444  141.0467 C   0  0  0  0  0  0  0  0  0  0  0  0
  137.3892  150.5405  143.3319 C   0  0  0  0  0  0  0  0  0  0  0  0
  136.5318  150.6199  144.5514 C   0  0  0  0  0  0  0  0  0  0  0  0
  139.9289  150.4531  139.9312 C   0  0  0  0  0  0  0  0  0  0  0  0
  136.8036  150.0089  142.1460 C   0  0  0  0  0  0  0  0  0  0  0  0
  139.4267  150.4734  138.6575 C   0  0  0  0  0  0  0  0  0  0  0  0
  1  2  2  0
  1  3  1  0
  2  4  1  0
  3  5  2  0
  5  6  1  0
  2  7  1  0
  4  8  2  0
  5  8  1  0
  7  9  1  0
M  END
$$$$

     RDKit          3D

  9  9  0  0  0  0  0  0  0  0999 V2000
  138.9995  149.7631  140.3651 C   0  0  0  0  0  0  0  0  0  0  0  0
  138.7139  149.5446  139.1245 C   0  0  0  0  0  0  0  0  0  0  0  0
  138.1832  150.1045  141.2841 C   0  0  0  0  0  0  0  0  0  0  0  0
  137.3206  149.5905  138.6810 C   0  0  0  0  0  0  0  0  0  0  0  0
  136.9836  149.1476  137.4587 O   0  0  0  0  0  0  0  0  0  0  0  0
  138.6050  150.6678  142.5819 C   0  0  0  0  0  0  0  0  0  0  0  0
  136.9066  150.4946  141.4621 C   0  0  0  0  0  0  0  0  0  0  0  0
  136.0369  149.8407  140.6522 C   0  0  0  0  0  0  0  0  0  0  0  0
  136.0781  149.6156  139.2957 N   0  0  0  0  0  0  0  0  0  0  0  0
  1  2  2  0
  1  3  1  0
  2  4  1  0
  4  5  2  0
  3  6  1  0
  3  7  2  0
  7  8  1  0
  4  9  1  0
  8  9  2  0
M  END
$$$$

     RDKit          3D

 10 10  0  0  0  0  0  0  0  0999 V2000
  140.3037  150.2154  139.4789 Cl  0  0  0  0  0  0  0  0  0  0  0  0
  138.6781  150.1864  140.5322 C   0  0  0  0  0  0  0  0  0  0  0  0
  137.6383  149.3835  140.0932 C   0  0  0  0  0  0  0  0  0  0  0  0
  136.4381  149.4572  140.8191 C   0  0  0  0  0  0  0  0  0  0  0  0
  139.1310  150.7531  141.5085 C   0  0  0  0  0  0  0  0  0  0  0  0
  138.1124  150.7972  142.6518 C   0  0  0  0  0  0  0  0  0  0  0  0
  136.8765  150.4821  142.6413 C   0  0  0  0  0  0  0  0  0  0  0  0
  138.7976  151.4294  144.1199 Cl  0  0  0  0  0  0  0  0  0  0  0  0
  135.3963  148.9136  139.7401 C   0  0  0  0  0  0  0  0  0  0  0  0
  136.0117  150.0345  141.9140 C   0  0  0  0  0  0  0  0  0  0  0  0
  1  2  1  0
  2  3  2  0
  3  4  1  0
  2  5  1  0
  5  6  2  0
  6  7  1  0
  6  8  1  0
  4  9  1  0
  4 10  2  0
  7 10  1  0
M  END
$$$$

     RDKit          3D

 10 10  0  0  0  0  0  0  0  0999 V2000
  138.9995  149.7631  140.3651 C   0  0  0  0  0  0  0  0  0  0  0  0
  138.7139  149.5446  139.1245 C   0  0  0  0  0  0  0  0  0  0  0  0
  138.1832  150.1045  141.2841 C   0  0  0  0  0  0  0  0  0  0  0  0
  137.3206  149.5905  138.6810 C   0  0  0  0  0  0  0  0  0  0  0  0
  136.9836  149.1476  137.4587 O   0  0  0  0  0  0  0  0  0  0  0  0
  138.6050  150.6678  142.5819 C   0  0  0  0  0  0  0  0  0  0  0  0
  136.5268  149.9487  139.6828 C   0  0  0  0  0  0  0  0  0  0  0  0
  137.7195  150.9835  143.6213 C   0  0  0  0  0  0  0  0  0  0  0  0
  138.0319  151.6086  144.8554 C   0  0  0  0  0  0  0  0  0  0  0  0
  136.8005  150.3434  141.2653 C   0  0  0  0  0  0  0  0  0  0  0  0
  1  2  2  0
  1  3  1  0
  2  4  1  0
  4  5  2  0
  3  6  1  0
  4  7  1  0
  6  8  2  3
  8  9  1  0
  3 10  2  0
  7 10  1  0
M  END
$$$$

     RDKit          3D

 10 10  0  0  0  0  0  0  0  0999 V2000
  138.7095  151.1467  142.6277 C   0  0  0  0  0  0  0  0  0  0  0  0
  138.5278  151.9381  143.5113 C   0  0  0  0  0  0  0  0  0  0  0  0
  137.4764  151.6766  144.4640 C   0  0  0  0  0  0  0  0  0  0  0  0
  138.0075  149.8667  142.4773 C   0  0  0  0  0  0  0  0  0  0  0  0
  136.7213  150.4852  144.2977 C   0  0  0  0  0  0  0  0  0  0  0  0
  136.9959  149.5766  143.3627 C   0  0  0  0  0  0  0  0  0  0  0  0
  139.7916  151.3440  141.5444 C   0  0  0  0  0  0  0  0  0  0  0  0
  137.1163  152.6311  145.5036 C   0  0  0  0  0  0  0  0  0  0  0  0
  135.9941  153.1855  145.3855 C   0  0  0  0  0  0  0  0  0  0  0  0
  139.8170  150.4821  140.4157 C   0  0  0  0  0  0  0  0  0  0  0  0
  1  2  2  0
  2  3  1  0
  1  4  1  0
  3  5  2  0
  4  6  2  0
  5  6  1  0
  1  7  1  0
  3  8  1  0
  8  9  1  0
  7 10  1  0
M  END
$$$$

     RDKit          3D

 10 11  0  0  0  0  0  0  0  0999 V2000
  139.5547  150.5069  140.4449 C   0  0  0  0  0  0  0  0  0  0  0  0
  139.2163  150.0152  139.3729 C   0  0  0  0  0  0  0  0  0  0  0  0
  138.8578  150.3067  141.5860 C   0  0  0  0  0  0  0  0  0  0  0  0
  137.9790  149.2997  139.2383 C   0  0  0  0  0  0  0  0  0  0  0  0
  139.3342  150.9311  142.8842 C   0  0  0  0  0  0  0  0  0  0  0  0
  138.3151  151.4956  143.6096 C   0  0  0  0  0  0  0  0  0  0  0  0
  137.0061  151.1297  143.2686 C   0  0  0  0  0  0  0  0  0  0  0  0
  137.0856  149.5087  140.1488 C   0  0  0  0  0  0  0  0  0  0  0  0
  136.7424  150.4046  142.1201 C   0  0  0  0  0  0  0  0  0  0  0  0
  137.5404  150.0509  141.2363 C   0  0  0  0  0  0  0  0  0  0  0  0
  1  2  2  0
  1  3  1  0
  2  4  1  0
  3  5  1  0
  5  6  2  0
  6  7  1  0
  4  8  2  0
  7  9  2  0
  3 10  2  0
  8 10  1  0
  9 10  1  0
M  END
$$$$

     RDKit          3D

 10 10  0  0  0  0  0  0  0  0999 V2000
  140.3037  150.2154  139.4789 Cl  0  0  0  0  0  0  0  0  0  0  0  0
  138.6781  150.1864  140.5322 C   0  0  0  0  0  0  0  0  0  0  0  0
  137.6383  149.3835  140.0932 C   0  0  0  0  0  0  0  0  0  0  0  0
  138.8659  150.7191  141.4521 C   0  0  0  0  0  0  0  0  0  0  0  0
  136.4770  149.4747  140.9574 C   0  0  0  0  0  0  0  0  0  0  0  0
  135.2970  148.9129  140.3578 C   0  0  0  0  0  0  0  0  0  0  0  0
  136.6537  150.3298  141.9841 C   0  0  0  0  0  0  0  0  0  0  0  0
  135.4964  150.4951  142.9729 C   0  0  0  0  0  0  0  0  0  0  0  0
  137.8474  150.9507  142.4197 C   0  0  0  0  0  0  0  0  0  0  0  0
  138.0644  151.7038  143.6813 C   0  0  0  0  0  0  0  0  0  0  0  0
  1  2  1  0
  2  3  2  0
  2  4  1  0
  3  5  1  0
  5  6  1  0
  5  7  2  0
  7  8  1  0
  4  9  2  0
  7  9  1  0
  9 10  1  0
M  END
$$$$

     RDKit          3D

 10 10  0  0  0  0  0  0  0  0999 V2000
  138.7095  151.1467  142.6277 C   0  0  0  0  0  0  0  0  0  0  0  0
  138.5278  151.9381  143.5113 C   0  0  0  0  0  0  0  0  0  0  0  0
  137.3840  151.6610  144.3967 C   0  0  0  0  0  0  0  0  0  0  0  0
  136.7653  150.3888  144.2991 C   0  0  0  0  0  0  0  0  0  0  0  0
  138.1237  149.8686  142.3074 C   0  0  0  0  0  0  0  0  0  0  0  0
  138.4285  149.0768  141.2819 C   0  0  0  0  0  0  0  0  0  0  0  0
  138.5072  149.8311  140.0610 C   0  0  0  0  0  0  0  0  0  0  0  0
  137.0972  149.5195  143.2926 C   0  0  0  0  0  0  0  0  0  0  0  0
  138.1954  149.1873  138.8444 C   0  0  0  0  0  0  0  0  0  0  0  0
  136.9577  152.6762  145.5812 Cl  0  0  0  0  0  0  0  0  0  0  0  0
  1  2  1  0
  2  3  2  0
  3  4  1  0
  1  5  2  0
  5  6  1  0
  6  7  1  0
  4  8  2  0
  5  8  1  0
  7  9  1  0
  3 10  1  0
M  END
$$$$

     RDKit          3D

 10 10  0  0  0  0  0  0  0  0999 V2000
  139.3434  149.9921  140.5876 C   0  0  0  0  0  0  0  0  0  0  0  0
  138.9518  149.9236  139.3657 C   0  0  0  0  0  0  0  0  0  0  0  0
  138.6168  150.1115  141.6414 C   0  0  0  0  0  0  0  0  0  0  0  0
  137.5735  149.8761  139.0597 C   0  0  0  0  0  0  0  0  0  0  0  0
  137.0914  149.5004  137.8161 C   0  0  0  0  0  0  0  0  0  0  0  0
  136.7644  149.9201  140.3215 C   0  0  0  0  0  0  0  0  0  0  0  0
  139.1469  150.2979  143.0578 C   0  0  0  0  0  0  0  0  0  0  0  0
  138.5157  151.2394  143.8232 C   0  0  0  0  0  0  0  0  0  0  0  0
  135.2668  150.0295  140.0648 C   0  0  0  0  0  0  0  0  0  0  0  0
  137.2276  150.1054  141.5811 C   0  0  0  0  0  0  0  0  0  0  0  0
  1  2  2  0
  1  3  1  0
  2  4  1  0
  4  5  1  0
  4  6  2  0
  3  7  1  0
  7  8  2  0
  6  9  1  0
  3 10  2  0
  6 10  1  0
M  END
$$$$

     RDKit          3D

 10 10  0  0  0  0  0  0  0  0999 V2000
  139.5547  150.5069  140.4449 C   0  0  0  0  0  0  0  0  0  0  0  0
  139.2163  150.0152  139.3729 C   0  0  0  0  0  0  0  0  0  0  0  0
  138.8578  150.3067  141.5860 C   0  0  0  0  0  0  0  0  0  0  0  0
  137.9790  149.2997  139.2383 C   0  0  0  0  0  0  0  0  0  0  0  0
  137.1568  149.1637  140.3918 C   0  0  0  0  0  0  0  0  0  0  0  0
  135.7452  148.7775  140.3423 C   0  0  0  0  0  0  0  0  0  0  0  0
  139.4305  150.8866  142.9223 C   0  0  0  0  0  0  0  0  0  0  0  0
  138.4753  151.4796  143.7110 C   0  0  0  0  0  0  0  0  0  0  0  0
  137.6178  149.8491  141.5916 C   0  0  0  0  0  0  0  0  0  0  0  0
  137.2294  151.0542  144.0610 C   0  0  0  0  0  0  0  0  0  0  0  0
  1  2  2  0
  1  3  1  0
  2  4  1  0
  4  5  2  0
  5  6  1  0
  3  7  1  0
  7  8  2  3
  3  9  2  0
  5  9  1  0
  8 10  1  0
M  END
$$$$

     RDKit          3D

 10 11  0  0  0  0  0  0  0  0999 V2000
  139.5359  150.8909  142.2321 C   0  0  0  0  0  0  0  0  0  0  0  0
  139.0004  151.9972  142.6390 C   0  0  0  0  0  0  0  0  0  0  0  0
  138.9548  149.6528  142.4227 C   0  0  0  0  0  0  0  0  0  0  0  0
  137.7523  151.8922  143.4311 C   0  0  0  0  0  0  0  0  0  0  0  0
  137.3027  153.0151  144.1104 C   0  0  0  0  0  0  0  0  0  0  0  0
  136.1173  152.8752  145.0004 C   0  0  0  0  0  0  0  0  0  0  0  0
  137.3449  150.4706  143.7057 C   0  0  0  0  0  0  0  0  0  0  0  0
  136.2276  150.4341  144.6998 C   0  0  0  0  0  0  0  0  0  0  0  0
  135.6696  151.6145  145.3946 C   0  0  0  0  0  0  0  0  0  0  0  0
  137.9347  149.4049  143.1415 N   0  0  0  0  0  0  0  0  0  0  0  0
  1  2  2  0
  1  3  1  0
  2  4  1  0
  4  5  1  0
  5  6  2  0
  4  7  2  0
  7  8  1  0
  6  9  1  0
  8  9  2  0
  3 10  2  0
  7 10  1  0
M  END
$$$$

     RDKit          3D

 10 11  0  0  0  0  0  0  0  0999 V2000
  139.5359  150.8909  142.2321 C   0  0  0  0  0  0  0  0  0  0  0  0
  139.0004  151.9972  142.6390 C   0  0  0  0  0  0  0  0  0  0  0  0
  138.9548  149.6528  142.4227 C   0  0  0  0  0  0  0  0  0  0  0  0
  137.7523  151.8922  143.4311 C   0  0  0  0  0  0  0  0  0  0  0  0
  137.3027  153.0151  144.1104 C   0  0  0  0  0  0  0  0  0  0  0  0
  136.3820  152.7483  145.0832 C   0  0  0  0  0  0  0  0  0  0  0  0
  137.7932  149.6188  143.3228 C   0  0  0  0  0  0  0  0  0  0  0  0
  137.3680  150.7617  143.9634 C   0  0  0  0  0  0  0  0  0  0  0  0
  136.2938  150.8958  144.9122 C   0  0  0  0  0  0  0  0  0  0  0  0
  135.5400  153.3827  145.8935 C   0  0  0  0  0  0  0  0  0  0  0  0
  1  2  2  0
  1  3  1  0
  2  4  1  0
  4  5  1  0
  5  6  2  0
  3  7  2  0
  4  8  2  0
  7  8  1  0
  6  9  1  0
  8  9  1  0
  6 10  1  0
M  END
$$$$

     RDKit          3D

 10 10  0  0  0  0  0  0  0  0999 V2000
  140.3037  150.2154  139.4789 Cl  0  0  0  0  0  0  0  0  0  0  0  0
  138.6781  150.1864  140.5322 C   0  0  0  0  0  0  0  0  0  0  0  0
  137.6383  149.3835  140.0932 C   0  0  0  0  0  0  0  0  0  0  0  0
  138.8659  150.7191  141.4521 C   0  0  0  0  0  0  0  0  0  0  0  0
  138.3205  150.9402  142.2995 C   0  0  0  0  0  0  0  0  0  0  0  0
  136.6328  149.6178  140.7913 C   0  0  0  0  0  0  0  0  0  0  0  0
  135.2653  149.2034  140.3255 C   0  0  0  0  0  0  0  0  0  0  0  0
  138.5419  151.6237  143.7074 C   0  0  0  0  0  0  0  0  0  0  0  0
  137.5348  151.9408  144.4598 C   0  0  0  0  0  0  0  0  0  0  0  0
  136.8287  150.4483  142.0699 C   0  0  0  0  0  0  0  0  0  0  0  0
  1  2  1  0
  2  3  2  0
  2  4  1  0
  4  5  2  0
  3  6  1  0
  6  7  1  0
  5  8  1  0
  8  9  2  0
  5 10  1  0
  6 10  2  0
M  END
$$$$

     RDKit          3D

 10 10  0  0  0  0  0  0  0  0999 V2000
  139.5359  150.8909  142.2321 C   0  0  0  0  0  0  0  0  0  0  0  0
  139.0142  150.3964  141.0601 C   0  0  0  0  0  0  0  0  0  0  0  0
  138.6975  150.9512  143.4052 C   0  0  0  0  0  0  0  0  0  0  0  0
  137.7125  149.9444  141.0467 C   0  0  0  0  0  0  0  0  0  0  0  0
  137.3892  150.5405  143.3319 C   0  0  0  0  0  0  0  0  0  0  0  0
  136.5318  150.6199  144.5514 C   0  0  0  0  0  0  0  0  0  0  0  0
  139.8859  150.4198  139.8497 C   0  0  0  0  0  0  0  0  0  0  0  0
  136.8045  150.0132  142.1550 C   0  0  0  0  0  0  0  0  0  0  0  0
  139.3501  150.4143  138.6375 C   0  0  0  0  0  0  0  0  0  0  0  0
  141.2315  150.4903  140.1608 C   0  0  0  0  0  0  0  0  0  0  0  0
  1  2  2  0
  1  3  1  0
  2  4  1  0
  3  5  2  0
  5  6  1  0
  2  7  1  0
  4  8  2  0
  5  8  1  0
  7  9  1  0
  7 10  2  0
M  END
$$$$

     RDKit          3D

 10 10  0  0  0  0  0  0  0  0999 V2000
  140.3037  150.2154  139.4789 Cl  0  0  0  0  0  0  0  0  0  0  0  0
  138.6781  150.1864  140.5322 C   0  0  0  0  0  0  0  0  0  0  0  0
  137.6383  149.3835  140.0932 C   0  0  0  0  0  0  0  0  0  0  0  0
  139.2398  150.7167  141.5765 C   0  0  0  0  0  0  0  0  0  0  0  0
  138.3576  151.0493  142.3779 C   0  0  0  0  0  0  0  0  0  0  0  0
  137.5071  148.8238  138.8337 C   0  0  0  0  0  0  0  0  0  0  0  0
  136.5385  149.6159  141.0306 C   0  0  0  0  0  0  0  0  0  0  0  0
  138.6111  151.8056  143.7154 C   0  0  0  0  0  0  0  0  0  0  0  0
  137.6213  151.9705  144.4764 C   0  0  0  0  0  0  0  0  0  0  0  0
  136.9452  150.5121  142.2734 C   0  0  0  0  0  0  0  0  0  0  0  0
  1  2  1  0
  2  3  1  0
  2  4  2  0
  4  5  1  0
  3  6  1  0
  3  7  2  0
  5  8  1  0
  8  9  2  0
  5 10  2  0
  7 10  1  0
M  END
$$$$

     RDKit          3D

 10 10  0  0  0  0  0  0  0  0999 V2000
  139.3434  149.9921  140.5876 C   0  0  0  0  0  0  0  0  0  0  0  0
  138.9518  149.9236  139.3657 C   0  0  0  0  0  0  0  0  0  0  0  0
  138.6168  150.1115  141.6414 C   0  0  0  0  0  0  0  0  0  0  0  0
  137.5735  149.8761  139.0597 C   0  0  0  0  0  0  0  0  0  0  0  0
  136.7817  149.6999  140.1431 C   0  0  0  0  0  0  0  0  0  0  0  0
  135.2697  149.6891  140.0409 C   0  0  0  0  0  0  0  0  0  0  0  0
  139.1488  150.3105  143.0551 C   0  0  0  0  0  0  0  0  0  0  0  0
  138.2425  150.7999  144.1075 C   0  0  0  0  0  0  0  0  0  0  0  0
  137.2975  150.0255  141.5135 C   0  0  0  0  0  0  0  0  0  0  0  0
  137.6538  152.0805  143.9155 C   0  0  0  0  0  0  0  0  0  0  0  0
  1  2  2  0
  1  3  1  0
  2  4  1  0
  4  5  2  0
  5  6  1  0
  3  7  1  0
  7  8  1  0
  3  9  2  0
  5  9  1  0
  8 10  1  0
M  END
$$$$

     RDKit          3D

 10 10  0  0  0  0  0  0  0  0999 V2000
  140.3037  150.2154  139.4789 Cl  0  0  0  0  0  0  0  0  0  0  0  0
  138.6781  150.1864  140.5322 C   0  0  0  0  0  0  0  0  0  0  0  0
  137.6383  149.3835  140.0932 C   0  0  0  0  0  0  0  0  0  0  0  0
  138.7726  150.9278  141.6514 C   0  0  0  0  0  0  0  0  0  0  0  0
  137.6838  150.8829  142.5424 C   0  0  0  0  0  0  0  0  0  0  0  0
  137.8361  151.5203  143.8923 C   0  0  0  0  0  0  0  0  0  0  0  0
  136.6904  151.6917  144.6959 C   0  0  0  0  0  0  0  0  0  0  0  0
  136.5244  149.6188  140.7839 C   0  0  0  0  0  0  0  0  0  0  0  0
  136.4965  150.2604  142.0434 C   0  0  0  0  0  0  0  0  0  0  0  0
  136.8877  152.3067  145.9868 C   0  0  0  0  0  0  0  0  0  0  0  0
  1  2  1  0
  2  3  1  0
  2  4  2  0
  4  5  1  0
  5  6  1  0
  6  7  2  3
  3  8  2  0
  5  9  2  0
  8  9  1  0
  7 10  1  0
M  END
$$$$

     RDKit          3D

 10 10  0  0  0  0  0  0  0  0999 V2000
  139.2622  151.0924  142.4036 C   0  0  0  0  0  0  0  0  0  0  0  0
  138.8614  152.1309  142.9028 C   0  0  0  0  0  0  0  0  0  0  0  0
  137.9130  151.7978  143.7819 C   0  0  0  0  0  0  0  0  0  0  0  0
  138.8285  150.3994  141.6024 C   0  0  0  0  0  0  0  0  0  0  0  0
  137.6660  149.9523  141.7639 C   0  0  0  0  0  0  0  0  0  0  0  0
  137.5091  152.5997  144.9568 C   0  0  0  0  0  0  0  0  0  0  0  0
  136.8134  150.7616  143.7776 C   0  0  0  0  0  0  0  0  0  0  0  0
  136.1570  152.8213  145.2706 C   0  0  0  0  0  0  0  0  0  0  0  0
  135.5202  152.3642  146.4365 C   0  0  0  0  0  0  0  0  0  0  0  0
  136.6518  150.0352  142.6427 C   0  0  0  0  0  0  0  0  0  0  0  0
  1  2  1  0
  2  3  2  0
  1  4  2  0
  4  5  1  0
  3  6  1  0
  3  7  1  0
  6  8  1  0
  8  9  1  0
  5 10  2  0
  7 10  2  0
M  END
$$$$

     RDKit          3D

 10 10  0  0  0  0  0  0  0  0999 V2000
  139.5359  150.8909  142.2321 C   0  0  0  0  0  0  0  0  0  0  0  0
  139.0142  150.3964  141.0601 C   0  0  0  0  0  0  0  0  0  0  0  0
  138.6975  150.9512  143.4052 C   0  0  0  0  0  0  0  0  0  0  0  0
  137.7125  149.9444  141.0467 C   0  0  0  0  0  0  0  0  0  0  0  0
  137.3892  150.5405  143.3319 C   0  0  0  0  0  0  0  0  0  0  0  0
  136.8760  150.0577  142.1551 C   0  0  0  0  0  0  0  0  0  0  0  0
  136.5309  150.7331  144.5206 C   0  0  0  0  0  0  0  0  0  0  0  0
  139.9108  150.3800  139.7715 C   0  0  0  0  0  0  0  0  0  0  0  0
  141.2775  150.3748  139.9680 C   0  0  0  0  0  0  0  0  0  0  0  0
  139.4138  150.4245  138.8338 O   0  0  0  0  0  0  0  0  0  0  0  0
  1  2  2  0
  1  3  1  0
  2  4  1  0
  3  5  2  0
  4  6  2  0
  5  6  1  0
  5  7  1  0
  2  8  1  0
  8  9  1  0
  8 10  2  0
M  END
$$$$

     RDKit          3D

 10  9  0  0  0  0  0  0  0  0999 V2000
  139.5547  150.5069  140.4449 C   0  0  0  0  0  0  0  0  0  0  0  0
  139.2163  150.0152  139.3729 C   0  0  0  0  0  0  0  0  0  0  0  0
  138.8578  150.3067  141.5860 C   0  0  0  0  0  0  0  0  0  0  0  0
  139.2256  150.3492  142.8903 C   0  0  0  0  0  0  0  0  0  0  0  0
  138.3524  151.0108  143.9708 C   0  0  0  0  0  0  0  0  0  0  0  0
  137.3975  151.4215  143.6155 C   0  0  0  0  0  0  0  0  0  0  0  0
  140.0603  149.8221  138.1670 C   0  0  0  0  0  0  0  0  0  0  0  0
  136.5582  152.2572  144.6197 C   0  0  0  0  0  0  0  0  0  0  0  0
  136.9858  153.3971  145.1320 C   0  0  0  0  0  0  0  0  0  0  0  0
  135.1612  152.3758  144.6214 C   0  0  0  0  0  0  0  0  0  0  0  0
  1  2  2  3
  1  3  1  0
  3  4  1  0
  4  5  2  3
  5  6  1  0
  2  7  1  0
  6  8  1  0
  8  9  1  0
  8 10  1  0
M  END
$$$$

     RDKit          3D

 10 10  0  0  0  0  0  0  0  0999 V2000
  140.3037  150.2154  139.4789 Cl  0  0  0  0  0  0  0  0  0  0  0  0
  138.6781  150.1864  140.5322 C   0  0  0  0  0  0  0  0  0  0  0  0
  137.6383  149.3835  140.0932 C   0  0  0  0  0  0  0  0  0  0  0  0
  136.4381  149.4572  140.8191 C   0  0  0  0  0  0  0  0  0  0  0  0
  138.9816  150.6968  141.6825 C   0  0  0  0  0  0  0  0  0  0  0  0
  138.2341  150.9034  142.4750 C   0  0  0  0  0  0  0  0  0  0  0  0
  136.4439  150.2812  142.0724 C   0  0  0  0  0  0  0  0  0  0  0  0
  137.0950  150.7955  142.8441 C   0  0  0  0  0  0  0  0  0  0  0  0
  136.3991  151.2262  144.2141 C   0  0  0  0  0  0  0  0  0  0  0  0
  137.2634  151.1463  145.3246 C   0  0  0  0  0  0  0  0  0  0  0  0
  1  2  1  0
  2  3  2  0
  3  4  1  0
  2  5  1  0
  5  6  2  0
  4  7  2  0
  6  8  1  0
  7  8  1  0
  8  9  1  0
  9 10  1  0
M  END
$$$$

     RDKit          3D

 10 10  0  0  0  0  0  0  0  0999 V2000
  139.5359  150.8909  142.2321 C   0  0  0  0  0  0  0  0  0  0  0  0
  139.0142  150.3964  141.0601 C   0  0  0  0  0  0  0  0  0  0  0  0
  138.6975  150.9512  143.4052 C   0  0  0  0  0  0  0  0  0  0  0  0
  137.7125  149.9444  141.0467 C   0  0  0  0  0  0  0  0  0  0  0  0
  137.3892  150.5405  143.3319 C   0  0  0  0  0  0  0  0  0  0  0  0
  136.8302  150.0169  142.1601 C   0  0  0  0  0  0  0  0  0  0  0  0
  139.9232  150.3927  139.7462 C   0  0  0  0  0  0  0  0  0  0  0  0
  141.2752  150.3866  139.9577 C   0  0  0  0  0  0  0  0  0  0  0  0
  139.4528  150.4268  138.8127 O   0  0  0  0  0  0  0  0  0  0  0  0
  136.4725  150.7432  144.7888 Cl  0  0  0  0  0  0  0  0  0  0  0  0
  1  2  2  0
  1  3  1  0
  2  4  1  0
  3  5  2  0
  4  6  2  0
  5  6  1  0
  2  7  1  0
  7  8  1  0
  7  9  2  0
  5 10  1  0
M  END
$$$$

     RDKit          3D

 10 10  0  0  0  0  0  0  0  0999 V2000
  139.2622  151.0924  142.4036 C   0  0  0  0  0  0  0  0  0  0  0  0
  138.8614  152.1309  142.9028 C   0  0  0  0  0  0  0  0  0  0  0  0
  137.9130  151.7978  143.7819 C   0  0  0  0  0  0  0  0  0  0  0  0
  138.8285  150.3994  141.6024 C   0  0  0  0  0  0  0  0  0  0  0  0
  137.6660  149.9523  141.7639 C   0  0  0  0  0  0  0  0  0  0  0  0
  137.5091  152.5997  144.9568 C   0  0  0  0  0  0  0  0  0  0  0  0
  136.8134  150.7616  143.7776 C   0  0  0  0  0  0  0  0  0  0  0  0
  136.1570  152.8213  145.2706 C   0  0  0  0  0  0  0  0  0  0  0  0
  135.5202  152.3642  146.4365 C   0  0  0  0  0  0  0  0  0  0  0  0
  136.6712  150.0344  142.7230 C   0  0  0  0  0  0  0  0  0  0  0  0
  1  2  1  0
  2  3  2  0
  1  4  2  0
  4  5  1  0
  3  6  1  0
  3  7  1  0
  6  8  1  0
  8  9  1  0
  5 10  2  0
  7 10  1  0
M  END
$$$$

     RDKit          3D

 10 10  0  0  0  0  0  0  0  0999 V2000
  138.7095  151.1467  142.6277 C   0  0  0  0  0  0  0  0  0  0  0  0
  138.5278  151.9381  143.5113 C   0  0  0  0  0  0  0  0  0  0  0  0
  137.3840  151.6610  144.3967 C   0  0  0  0  0  0  0  0  0  0  0  0
  136.7653  150.3888  144.2991 C   0  0  0  0  0  0  0  0  0  0  0  0
  138.1237  149.8686  142.3074 C   0  0  0  0  0  0  0  0  0  0  0  0
  138.4285  149.0768  141.2819 C   0  0  0  0  0  0  0  0  0  0  0  0
  138.5072  149.8311  140.0610 C   0  0  0  0  0  0  0  0  0  0  0  0
  137.0799  149.5075  143.3557 C   0  0  0  0  0  0  0  0  0  0  0  0
  136.9991  152.5859  145.4369 C   0  0  0  0  0  0  0  0  0  0  0  0
  138.2174  149.1229  138.8120 C   0  0  0  0  0  0  0  0  0  0  0  0
  1  2  1  0
  2  3  2  0
  3  4  1  0
  1  5  2  0
  5  6  1  0
  6  7  1  0
  4  8  2  0
  5  8  1  0
  3  9  1  0
  7 10  1  0
M  END
$$$$

     RDKit          3D

 10 10  0  0  0  0  0  0  0  0999 V2000
  140.3037  150.2154  139.4789 Cl  0  0  0  0  0  0  0  0  0  0  0  0
  138.6781  150.1864  140.5322 C   0  0  0  0  0  0  0  0  0  0  0  0
  137.6383  149.3835  140.0932 C   0  0  0  0  0  0  0  0  0  0  0  0
  138.7726  150.9278  141.6514 C   0  0  0  0  0  0  0  0  0  0  0  0
  138.1293  150.9128  142.4416 C   0  0  0  0  0  0  0  0  0  0  0  0
  137.5753  148.9052  138.7236 C   0  0  0  0  0  0  0  0  0  0  0  0
  136.7592  150.1928  142.4640 C   0  0  0  0  0  0  0  0  0  0  0  0
  135.8311  150.3482  143.4723 C   0  0  0  0  0  0  0  0  0  0  0  0
  136.4080  149.4875  140.9561 C   0  0  0  0  0  0  0  0  0  0  0  0
  138.2062  151.4175  144.0839 Cl  0  0  0  0  0  0  0  0  0  0  0  0
  1  2  1  0
  2  3  1  0
  2  4  2  0
  4  5  1  0
  3  6  1  0
  5  7  2  0
  7  8  1  0
  3  9  2  0
  7  9  1  0
  5 10  1  0
M  END
$$$$

     RDKit          3D

 10 10  0  0  0  0  0  0  0  0999 V2000
  139.2622  151.0924  142.4036 C   0  0  0  0  0  0  0  0  0  0  0  0
  138.8614  152.1309  142.9028 C   0  0  0  0  0  0  0  0  0  0  0  0
  137.9130  151.7978  143.7819 C   0  0  0  0  0  0  0  0  0  0  0  0
  138.8285  150.3994  141.6024 C   0  0  0  0  0  0  0  0  0  0  0  0
  137.6660  149.9523  141.7639 C   0  0  0  0  0  0  0  0  0  0  0  0
  136.7256  151.0096  143.4742 C   0  0  0  0  0  0  0  0  0  0  0  0
  135.5946  151.2562  144.4258 C   0  0  0  0  0  0  0  0  0  0  0  0
  136.5956  150.1289  142.4784 C   0  0  0  0  0  0  0  0  0  0  0  0
  139.6035  149.6479  140.4756 C   0  0  0  0  0  0  0  0  0  0  0  0
  140.1201  150.4058  139.6159 C   0  0  0  0  0  0  0  0  0  0  0  0
  1  2  1  0
  2  3  2  0
  1  4  2  0
  4  5  1  0
  3  6  1  0
  6  7  1  0
  5  8  1  0
  6  8  2  0
  4  9  1  0
  9 10  2  0
M  END
$$$$

     RDKit          3D

 10 10  0  0  0  0  0  0  0  0999 V2000
  139.2622  151.0924  142.4036 C   0  0  0  0  0  0  0  0  0  0  0  0
  138.8614  152.1309  142.9028 C   0  0  0  0  0  0  0  0  0  0  0  0
  137.9130  151.7978  143.7819 C   0  0  0  0  0  0  0  0  0  0  0  0
  138.8285  150.3994  141.6024 C   0  0  0  0  0  0  0  0  0  0  0  0
  137.6660  149.9523  141.7639 C   0  0  0  0  0  0  0  0  0  0  0  0
  136.7256  151.0096  143.4742 C   0  0  0  0  0  0  0  0  0  0  0  0
  135.5946  151.2562  144.4258 C   0  0  0  0  0  0  0  0  0  0  0  0
  136.5956  150.1289  142.4784 C   0  0  0  0  0  0  0  0  0  0  0  0
  139.6035  149.6479  140.4756 C   0  0  0  0  0  0  0  0  0  0  0  0
  139.1299  149.5190  139.4141 C   0  0  0  0  0  0  0  0  0  0  0  0
  1  2  1  0
  2  3  2  0
  1  4  2  0
  4  5  1  0
  3  6  1  0
  6  7  1  0
  5  8  1  0
  6  8  2  0
  4  9  1  0
  9 10  1  0
M  END
$$$$

     RDKit          3D

 10 10  0  0  0  0  0  0  0  0999 V2000
  140.3037  150.2154  139.4789 Cl  0  0  0  0  0  0  0  0  0  0  0  0
  138.6781  150.1864  140.5322 C   0  0  0  0  0  0  0  0  0  0  0  0
  137.6383  149.3835  140.0932 C   0  0  0  0  0  0  0  0  0  0  0  0
  138.7726  150.9278  141.6514 C   0  0  0  0  0  0  0  0  0  0  0  0
  138.1293  150.9128  142.4416 C   0  0  0  0  0  0  0  0  0  0  0  0
  138.2155  151.5104  143.8856 C   0  0  0  0  0  0  0  0  0  0  0  0
  136.8872  150.1827  142.6103 C   0  0  0  0  0  0  0  0  0  0  0  0
  137.6351  148.9096  138.8038 C   0  0  0  0  0  0  0  0  0  0  0  0
  136.0182  150.3261  143.7393 C   0  0  0  0  0  0  0  0  0  0  0  0
  136.6524  151.0298  144.7822 C   0  0  0  0  0  0  0  0  0  0  0  0
  1  2  1  0
  2  3  1  0
  2  4  2  3
  4  5  1  0
  5  6  1  0
  5  7  2  0
  3  8  1  0
  7  9  1  0
  6 10  1  0
  9 10  2  0
M  END
$$$$

     RDKit          3D

 10 10  0  0  0  0  0  0  0  0999 V2000
  140.3037  150.2154  139.4789 Cl  0  0  0  0  0  0  0  0  0  0  0  0
  138.6781  150.1864  140.5322 C   0  0  0  0  0  0  0  0  0  0  0  0
  137.6383  149.3835  140.0932 C   0  0  0  0  0  0  0  0  0  0  0  0
  138.8659  150.7191  141.4521 C   0  0  0  0  0  0  0  0  0  0  0  0
  137.5320  148.8060  138.7961 C   0  0  0  0  0  0  0  0  0  0  0  0
  136.5357  149.6026  140.9585 C   0  0  0  0  0  0  0  0  0  0  0  0
  138.1354  150.9251  142.4328 C   0  0  0  0  0  0  0  0  0  0  0  0
  138.3230  151.5926  143.7551 C   0  0  0  0  0  0  0  0  0  0  0  0
  135.2315  149.2475  140.6864 C   0  0  0  0  0  0  0  0  0  0  0  0
  136.7674  150.3562  142.2399 C   0  0  0  0  0  0  0  0  0  0  0  0
  1  2  1  0
  2  3  2  0
  2  4  1  0
  3  5  1  0
  3  6  1  0
  4  7  2  0
  7  8  1  0
  6  9  1  0
  6 10  2  0
  7 10  1  0
M  END
$$$$

     RDKit          3D

 10 10  0  0  0  0  0  0  0  0999 V2000
  138.9995  149.7631  140.3651 C   0  0  0  0  0  0  0  0  0  0  0  0
  138.7139  149.5446  139.1245 C   0  0  0  0  0  0  0  0  0  0  0  0
  138.1832  150.1045  141.2841 C   0  0  0  0  0  0  0  0  0  0  0  0
  137.3206  149.5905  138.6810 C   0  0  0  0  0  0  0  0  0  0  0  0
  136.9836  149.1476  137.4587 O   0  0  0  0  0  0  0  0  0  0  0  0
  138.6050  150.6678  142.5819 C   0  0  0  0  0  0  0  0  0  0  0  0
  136.5268  149.9487  139.6828 C   0  0  0  0  0  0  0  0  0  0  0  0
  137.7195  150.9835  143.6213 C   0  0  0  0  0  0  0  0  0  0  0  0
  138.0319  151.6086  144.8554 C   0  0  0  0  0  0  0  0  0  0  0  0
  136.8710  150.3201  141.0194 C   0  0  0  0  0  0  0  0  0  0  0  0
  1  2  2  0
  1  3  1  0
  2  4  1  0
  4  5  2  0
  3  6  1  0
  4  7  1  0
  6  8  2  3
  8  9  1  0
  3 10  2  0
  7 10  2  0
M  END
$$$$

     RDKit          3D

 10 11  0  0  0  0  0  0  0  0999 V2000
  140.3037  150.2154  139.4789 Cl  0  0  0  0  0  0  0  0  0  0  0  0
  138.6781  150.1864  140.5322 C   0  0  0  0  0  0  0  0  0  0  0  0
  137.6383  149.3835  140.0932 C   0  0  0  0  0  0  0  0  0  0  0  0
  139.0323  150.8827  141.6188 C   0  0  0  0  0  0  0  0  0  0  0  0
  138.0466  150.8334  142.6902 C   0  0  0  0  0  0  0  0  0  0  0  0
  136.8389  150.0632  142.4017 C   0  0  0  0  0  0  0  0  0  0  0  0
  135.7986  150.2251  143.4009 C   0  0  0  0  0  0  0  0  0  0  0  0
  136.2526  151.2188  144.4069 C   0  0  0  0  0  0  0  0  0  0  0  0
  137.6294  151.6012  144.3542 C   0  0  0  0  0  0  0  0  0  0  0  0
  136.6242  149.5156  141.0955 C   0  0  0  0  0  0  0  0  0  0  0  0
  1  2  1  0
  2  3  2  0
  2  4  1  0
  4  5  2  0
  5  6  1  0
  6  7  1  0
  7  8  1  0
  5  9  1  0
  8  9  2  0
  3 10  1  0
  6 10  2  0
M  END
$$$$

     RDKit          3D

 10 11  0  0  0  0  0  0  0  0999 V2000
  140.3037  150.2154  139.4789 Cl  0  0  0  0  0  0  0  0  0  0  0  0
  138.6781  150.1864  140.5322 C   0  0  0  0  0  0  0  0  0  0  0  0
  137.6383  149.3835  140.0932 C   0  0  0  0  0  0  0  0  0  0  0  0
  138.7493  150.9487  141.6722 C   0  0  0  0  0  0  0  0  0  0  0  0
  136.4550  149.4185  140.9231 C   0  0  0  0  0  0  0  0  0  0  0  0
  136.4020  150.2882  142.0360 C   0  0  0  0  0  0  0  0  0  0  0  0
  135.2029  150.3942  142.8879 C   0  0  0  0  0  0  0  0  0  0  0  0
  135.6292  151.1000  144.1630 C   0  0  0  0  0  0  0  0  0  0  0  0
  137.5864  150.9728  142.5063 C   0  0  0  0  0  0  0  0  0  0  0  0
  137.5014  151.6371  143.8644 S   0  0  0  0  0  0  0  0  0  0  0  0
  1  2  1  0
  2  3  2  0
  2  4  1  0
  3  5  1  0
  5  6  2  0
  6  7  1  0
  7  8  2  0
  4  9  2  0
  6  9  1  0
  8 10  1  0
  9 10  1  0
M  END
$$$$

     RDKit          3D

 10 11  0  0  0  0  0  0  0  0999 V2000
  139.2622  151.0924  142.4036 C   0  0  0  0  0  0  0  0  0  0  0  0
  138.8614  152.1309  142.9028 C   0  0  0  0  0  0  0  0  0  0  0  0
  137.7834  151.8919  143.8933 C   0  0  0  0  0  0  0  0  0  0  0  0
  138.6284  149.7789  142.4953 C   0  0  0  0  0  0  0  0  0  0  0  0
  137.2485  150.9082  144.1346 C   0  0  0  0  0  0  0  0  0  0  0  0
  136.1962  150.6630  145.1928 C   0  0  0  0  0  0  0  0  0  0  0  0
  135.6074  151.8982  145.5980 C   0  0  0  0  0  0  0  0  0  0  0  0
  135.7149  152.9907  144.7647 C   0  0  0  0  0  0  0  0  0  0  0  0
  137.6430  149.6852  143.4226 C   0  0  0  0  0  0  0  0  0  0  0  0
  137.2337  153.2436  144.5928 C   0  0  0  0  0  0  0  0  0  0  0  0
  1  2  1  0
  2  3  2  0
  1  4  2  0
  3  5  1  0
  5  6  1  0
  6  7  2  0
  7  8  1  0
  4  9  1  0
  5  9  2  0
  3 10  1  0
  8 10  1  0
M  END
$$$$

     RDKit          3D

 11 12  0  0  0  0  0  0  0  0999 V2000
  140.3037  150.2154  139.4789 Cl  0  0  0  0  0  0  0  0  0  0  0  0
  138.6781  150.1864  140.5322 C   0  0  0  0  0  0  0  0  0  0  0  0
  137.6383  149.3835  140.0932 C   0  0  0  0  0  0  0  0  0  0  0  0
  138.8659  150.7191  141.4521 C   0  0  0  0  0  0  0  0  0  0  0  0
  138.3205  150.9402  142.2995 C   0  0  0  0  0  0  0  0  0  0  0  0
  136.9011  150.1337  142.2782 C   0  0  0  0  0  0  0  0  0  0  0  0
  138.3559  151.6546  143.7677 C   0  0  0  0  0  0  0  0  0  0  0  0
  135.9546  150.4019  143.2832 C   0  0  0  0  0  0  0  0  0  0  0  0
  136.5687  149.5570  141.0018 C   0  0  0  0  0  0  0  0  0  0  0  0
  136.3514  151.3474  144.2875 C   0  0  0  0  0  0  0  0  0  0  0  0
  137.5346  151.8088  144.5785 C   0  0  0  0  0  0  0  0  0  0  0  0
  1  2  1  0
  2  3  2  0
  2  4  1  0
  4  5  2  0
  5  6  1  0
  5  7  1  0
  6  8  1  0
  3  9  1  0
  6  9  2  0
  8 10  2  0
  7 11  2  0
 10 11  1  0
M  END
$$$$

     RDKit          3D

 11 12  0  0  0  0  0  0  0  0999 V2000
  139.5359  150.8909  142.2321 C   0  0  0  0  0  0  0  0  0  0  0  0
  139.0004  151.9972  142.6390 C   0  0  0  0  0  0  0  0  0  0  0  0
  138.9548  149.6528  142.4227 C   0  0  0  0  0  0  0  0  0  0  0  0
  137.7523  151.8922  143.4311 C   0  0  0  0  0  0  0  0  0  0  0  0
  137.3027  153.0151  144.1104 C   0  0  0  0  0  0  0  0  0  0  0  0
  136.3820  152.7483  145.0832 C   0  0  0  0  0  0  0  0  0  0  0  0
  136.0517  151.4296  145.3456 C   0  0  0  0  0  0  0  0  0  0  0  0
  137.3608  150.5123  143.8367 C   0  0  0  0  0  0  0  0  0  0  0  0
  136.5361  150.4103  144.8596 C   0  0  0  0  0  0  0  0  0  0  0  0
  137.9409  149.4801  143.1395 N   0  0  0  0  0  0  0  0  0  0  0  0
  135.7208  153.9219  145.6906 C   0  0  0  0  0  0  0  0  0  0  0  0
  1  2  2  0
  1  3  1  0
  2  4  1  0
  4  5  1  0
  5  6  2  0
  6  7  1  0
  4  8  2  0
  7  9  2  0
  8  9  1  0
  3 10  2  0
  8 10  1  0
  6 11  1  0
M  END
$$$$

     RDKit          3D

 11 12  0  0  0  0  0  0  0  0999 V2000
  139.2622  151.0924  142.4036 C   0  0  0  0  0  0  0  0  0  0  0  0
  138.8614  152.1309  142.9028 C   0  0  0  0  0  0  0  0  0  0  0  0
  137.7834  151.8919  143.8933 C   0  0  0  0  0  0  0  0  0  0  0  0
  138.7742  150.3116  141.6690 C   0  0  0  0  0  0  0  0  0  0  0  0
  137.5848  149.8837  142.0793 C   0  0  0  0  0  0  0  0  0  0  0  0
  137.3710  152.7288  144.9132 C   0  0  0  0  0  0  0  0  0  0  0  0
  136.1767  152.7912  145.1679 C   0  0  0  0  0  0  0  0  0  0  0  0
  136.6392  149.0745  141.4550 C   0  0  0  0  0  0  0  0  0  0  0  0
  135.2379  151.8347  144.8622 C   0  0  0  0  0  0  0  0  0  0  0  0
  137.0314  150.6412  143.3080 C   0  0  0  0  0  0  0  0  0  0  0  0
  135.7553  150.5676  144.0167 C   0  0  0  0  0  0  0  0  0  0  0  0
  1  2  1  0
  2  3  2  0
  1  4  2  0
  4  5  1  0
  3  6  1  0
  6  7  2  0
  5  8  1  0
  7  9  1  0
  3 10  1  0
  5 10  2  0
  9 11  2  0
 10 11  1  0
M  END
$$$$

     RDKit          3D

 11 12  0  0  0  0  0  0  0  0999 V2000
  140.3037  150.2154  139.4789 Cl  0  0  0  0  0  0  0  0  0  0  0  0
  138.6781  150.1864  140.5322 C   0  0  0  0  0  0  0  0  0  0  0  0
  137.6383  149.3835  140.0932 C   0  0  0  0  0  0  0  0  0  0  0  0
  138.7493  150.9487  141.6722 C   0  0  0  0  0  0  0  0  0  0  0  0
  137.7544  150.8736  142.6262 C   0  0  0  0  0  0  0  0  0  0  0  0
  136.6333  150.0380  142.2601 C   0  0  0  0  0  0  0  0  0  0  0  0
  135.5226  150.1704  143.1866 C   0  0  0  0  0  0  0  0  0  0  0  0
  136.4811  149.4874  140.9515 C   0  0  0  0  0  0  0  0  0  0  0  0
  135.9365  150.9704  144.4546 C   0  0  0  0  0  0  0  0  0  0  0  0
  137.0607  150.7789  145.0450 C   0  0  0  0  0  0  0  0  0  0  0  0
  138.0312  151.3905  143.9635 C   0  0  0  0  0  0  0  0  0  0  0  0
  1  2  1  0
  2  3  2  0
  2  4  1  0
  4  5  2  0
  5  6  1  0
  6  7  1  0
  3  8  1  0
  6  8  2  0
  7  9  1  0
  9 10  1  0
  5 11  1  0
 10 11  1  0
M  END
$$$$

     RDKit          3D

 11 12  0  0  0  0  0  0  0  0999 V2000
  138.9995  149.7631  140.3651 C   0  0  0  0  0  0  0  0  0  0  0  0
  138.7139  149.5446  139.1245 C   0  0  0  0  0  0  0  0  0  0  0  0
  138.1832  150.1045  141.2841 C   0  0  0  0  0  0  0  0  0  0  0  0
  137.3206  149.5905  138.6810 C   0  0  0  0  0  0  0  0  0  0  0  0
  136.9836  149.1476  137.4587 O   0  0  0  0  0  0  0  0  0  0  0  0
  138.6053  150.6473  142.5904 C   0  0  0  0  0  0  0  0  0  0  0  0
  136.8415  150.3585  141.0404 C   0  0  0  0  0  0  0  0  0  0  0  0
  135.9113  150.6663  142.1137 C   0  0  0  0  0  0  0  0  0  0  0  0
  137.7603  150.8455  143.6527 C   0  0  0  0  0  0  0  0  0  0  0  0
  136.4189  150.9608  143.4166 C   0  0  0  0  0  0  0  0  0  0  0  0
  136.4476  149.8040  139.7048 C   0  0  0  0  0  0  0  0  0  0  0  0
  1  2  2  0
  1  3  1  0
  2  4  1  0
  4  5  1  0
  3  6  1  0
  3  7  2  0
  7  8  1  0
  6  9  2  0
  8 10  2  0
  9 10  1  0
  4 11  2  0
  7 11  1  0
M  END
$$$$

     RDKit          3D

 11 12  0  0  0  0  0  0  0  0999 V2000
  138.7095  151.1467  142.6277 C   0  0  0  0  0  0  0  0  0  0  0  0
  138.5278  151.9381  143.5113 C   0  0  0  0  0  0  0  0  0  0  0  0
  137.3924  151.8109  144.0738 C   0  0  0  0  0  0  0  0  0  0  0  0
  136.5960  150.6215  143.9730 C   0  0  0  0  0  0  0  0  0  0  0  0
  137.9801  149.9621  142.2574 C   0  0  0  0  0  0  0  0  0  0  0  0
  136.5091  152.7523  145.0869 C   0  0  0  0  0  0  0  0  0  0  0  0
  136.8373  153.9883  145.0810 C   0  0  0  0  0  0  0  0  0  0  0  0
  135.4816  150.3971  144.8326 C   0  0  0  0  0  0  0  0  0  0  0  0
  135.4758  152.1997  145.8072 C   0  0  0  0  0  0  0  0  0  0  0  0
  136.9053  149.6149  142.9982 C   0  0  0  0  0  0  0  0  0  0  0  0
  134.8636  151.1130  145.6809 C   0  0  0  0  0  0  0  0  0  0  0  0
  1  2  1  0
  2  3  2  0
  3  4  1  0
  1  5  2  0
  3  6  1  0
  6  7  2  0
  4  8  1  0
  6  9  1  0
  4 10  2  0
  5 10  1  0
  8 11  2  0
  9 11  2  0
M  END
$$$$

     RDKit          3D

 11 11  0  0  0  0  0  0  0  0999 V2000
  140.3037  150.2154  139.4789 Cl  0  0  0  0  0  0  0  0  0  0  0  0
  138.6781  150.1864  140.5322 C   0  0  0  0  0  0  0  0  0  0  0  0
  137.6383  149.3835  140.0932 C   0  0  0  0  0  0  0  0  0  0  0  0
  138.7726  150.9278  141.6514 C   0  0  0  0  0  0  0  0  0  0  0  0
  137.6838  150.8829  142.5424 C   0  0  0  0  0  0  0  0  0  0  0  0
  137.8361  151.5203  143.8923 C   0  0  0  0  0  0  0  0  0  0  0  0
  136.6904  151.6917  144.6959 C   0  0  0  0  0  0  0  0  0  0  0  0
  137.6537  148.8491  138.8355 C   0  0  0  0  0  0  0  0  0  0  0  0
  136.4874  149.6441  140.7664 C   0  0  0  0  0  0  0  0  0  0  0  0
  136.5173  150.2484  141.9863 C   0  0  0  0  0  0  0  0  0  0  0  0
  135.4939  151.3773  144.3784 C   0  0  0  0  0  0  0  0  0  0  0  0
  1  2  1  0
  2  3  1  0
  2  4  2  0
  4  5  1  0
  5  6  1  0
  6  7  2  3
  3  8  1  0
  3  9  2  0
  5 10  2  0
  9 10  1  0
  7 11  1  0
M  END
$$$$

     RDKit          3D

 11 11  0  0  0  0  0  0  0  0999 V2000
  140.3037  150.2154  139.4789 Cl  0  0  0  0  0  0  0  0  0  0  0  0
  138.6781  150.1864  140.5322 C   0  0  0  0  0  0  0  0  0  0  0  0
  137.6383  149.3835  140.0932 C   0  0  0  0  0  0  0  0  0  0  0  0
  138.8659  150.7191  141.4521 C   0  0  0  0  0  0  0  0  0  0  0  0
  137.8205  150.8021  142.5167 C   0  0  0  0  0  0  0  0  0  0  0  0
  138.0507  151.4552  143.8205 C   0  0  0  0  0  0  0  0  0  0  0  0
  136.7024  150.0764  142.0189 C   0  0  0  0  0  0  0  0  0  0  0  0
  139.1586  151.7912  144.2108 C   0  0  0  0  0  0  0  0  0  0  0  0
  136.4785  149.4925  140.8728 C   0  0  0  0  0  0  0  0  0  0  0  0
  136.9068  151.6999  144.6872 C   0  0  0  0  0  0  0  0  0  0  0  0
  135.6223  151.2946  144.4173 C   0  0  0  0  0  0  0  0  0  0  0  0
  1  2  1  0
  2  3  2  0
  2  4  1  0
  4  5  2  0
  5  6  1  0
  5  7  1  0
  6  8  2  0
  3  9  1  0
  7  9  2  0
  6 10  1  0
 10 11  2  0
M  END
$$$$

     RDKit          3D

 11 11  0  0  0  0  0  0  0  0999 V2000
  138.7095  151.1467  142.6277 C   0  0  0  0  0  0  0  0  0  0  0  0
  138.5278  151.9381  143.5113 C   0  0  0  0  0  0  0  0  0  0  0  0
  137.3840  151.6610  144.3967 C   0  0  0  0  0  0  0  0  0  0  0  0
  136.7653  150.3888  144.2991 C   0  0  0  0  0  0  0  0  0  0  0  0
  138.1237  149.8686  142.3074 C   0  0  0  0  0  0  0  0  0  0  0  0
  138.4285  149.0768  141.2819 C   0  0  0  0  0  0  0  0  0  0  0  0
  138.5072  149.8311  140.0610 C   0  0  0  0  0  0  0  0  0  0  0  0
  137.0972  149.5195  143.2926 C   0  0  0  0  0  0  0  0  0  0  0  0
  139.2687  150.8505  139.8288 O   0  0  0  0  0  0  0  0  0  0  0  0
  137.5973  149.4890  138.9410 C   0  0  0  0  0  0  0  0  0  0  0  0
  136.9563  152.6635  145.6035 Cl  0  0  0  0  0  0  0  0  0  0  0  0
  1  2  1  0
  2  3  2  0
  3  4  1  0
  1  5  2  0
  5  6  1  0
  6  7  1  0
  4  8  2  0
  5  8  1  0
  7  9  2  0
  7 10  1  0
  3 11  1  0
M  END
$$$$

     RDKit          3D

 11 12  0  0  0  0  0  0  0  0999 V2000
  138.9995  149.7631  140.3651 C   0  0  0  0  0  0  0  0  0  0  0  0
  138.7139  149.5446  139.1245 C   0  0  0  0  0  0  0  0  0  0  0  0
  138.1832  150.1045  141.2841 C   0  0  0  0  0  0  0  0  0  0  0  0
  137.3206  149.5905  138.6810 C   0  0  0  0  0  0  0  0  0  0  0  0
  136.7270  150.0359  141.0328 C   0  0  0  0  0  0  0  0  0  0  0  0
  135.7568  150.2398  142.0493 C   0  0  0  0  0  0  0  0  0  0  0  0
  136.2621  149.6975  139.6872 C   0  0  0  0  0  0  0  0  0  0  0  0
  136.3587  151.0197  143.1410 C   0  0  0  0  0  0  0  0  0  0  0  0
  138.4975  150.6930  142.6605 C   0  0  0  0  0  0  0  0  0  0  0  0
  137.4062  151.0605  143.5356 C   0  0  0  0  0  0  0  0  0  0  0  0
  137.9382  151.7746  144.7806 C   0  0  0  0  0  0  0  0  0  0  0  0
  1  2  2  0
  1  3  1  0
  2  4  1  0
  3  5  2  0
  5  6  1  0
  4  7  2  0
  5  7  1  0
  6  8  2  0
  3  9  1  0
  8 10  1  0
  9 10  2  0
 10 11  1  0
M  END
$$$$

     RDKit          3D

 11 12  0  0  0  0  0  0  0  0999 V2000
  139.5547  150.5069  140.4449 C   0  0  0  0  0  0  0  0  0  0  0  0
  139.2163  150.0152  139.3729 C   0  0  0  0  0  0  0  0  0  0  0  0
  138.8578  150.3067  141.5860 C   0  0  0  0  0  0  0  0  0  0  0  0
  137.9790  149.2997  139.2383 C   0  0  0  0  0  0  0  0  0  0  0  0
  139.3342  150.9311  142.8842 C   0  0  0  0  0  0  0  0  0  0  0  0
  138.3151  151.4956  143.6096 C   0  0  0  0  0  0  0  0  0  0  0  0
  137.0061  151.1297  143.2686 C   0  0  0  0  0  0  0  0  0  0  0  0
  136.7486  150.4055  142.1315 C   0  0  0  0  0  0  0  0  0  0  0  0
  135.2482  150.1314  141.8630 C   0  0  0  0  0  0  0  0  0  0  0  0
  137.7503  150.0196  141.3290 C   0  0  0  0  0  0  0  0  0  0  0  0
  137.2847  149.3112  140.2284 N   0  0  0  0  0  0  0  0  0  0  0  0
  1  2  2  0
  1  3  1  0
  2  4  1  0
  3  5  1  0
  5  6  2  0
  6  7  1  0
  7  8  2  0
  8  9  1  0
  3 10  2  0
  8 10  1  0
  4 11  2  0
 10 11  1  0
M  END
$$$$

     RDKit          3D

 11 11  0  0  0  0  0  0  0  0999 V2000
  138.7095  151.1467  142.6277 C   0  0  0  0  0  0  0  0  0  0  0  0
  138.5278  151.9381  143.5113 C   0  0  0  0  0  0  0  0  0  0  0  0
  137.3840  151.6610  144.3967 C   0  0  0  0  0  0  0  0  0  0  0  0
  136.7653  150.3888  144.2991 C   0  0  0  0  0  0  0  0  0  0  0  0
  138.1237  149.8686  142.3074 C   0  0  0  0  0  0  0  0  0  0  0  0
  138.4285  149.0768  141.2819 C   0  0  0  0  0  0  0  0  0  0  0  0
  138.5072  149.8311  140.0610 C   0  0  0  0  0  0  0  0  0  0  0  0
  137.0972  149.5195  143.2926 C   0  0  0  0  0  0  0  0  0  0  0  0
  139.2687  150.8505  139.8288 O   0  0  0  0  0  0  0  0  0  0  0  0
  136.7762  152.6474  145.5145 C   0  0  0  0  0  0  0  0  0  0  0  0
  137.8360  149.3947  138.9361 O   0  0  0  0  0  0  0  0  0  0  0  0
  1  2  1  0
  2  3  2  0
  3  4  1  0
  1  5  2  0
  5  6  1  0
  6  7  1  0
  4  8  2  0
  5  8  1  0
  7  9  2  0
  3 10  1  0
  7 11  1  0
M  END
$$$$

     RDKit          3D

 11 11  0  0  0  0  0  0  0  0999 V2000
  139.5547  150.5069  140.4449 C   0  0  0  0  0  0  0  0  0  0  0  0
  139.2163  150.0152  139.3729 C   0  0  0  0  0  0  0  0  0  0  0  0
  138.8578  150.3067  141.5860 C   0  0  0  0  0  0  0  0  0  0  0  0
  137.9790  149.2997  139.2383 C   0  0  0  0  0  0  0  0  0  0  0  0
  137.5546  148.8181  137.9582 C   0  0  0  0  0  0  0  0  0  0  0  0
  139.2075  150.9117  142.9013 C   0  0  0  0  0  0  0  0  0  0  0  0
  138.1326  151.1492  143.9187 C   0  0  0  0  0  0  0  0  0  0  0  0
  137.2039  149.2745  140.4671 C   0  0  0  0  0  0  0  0  0  0  0  0
  135.7788  148.7883  140.2549 C   0  0  0  0  0  0  0  0  0  0  0  0
  137.5530  149.7424  141.5841 C   0  0  0  0  0  0  0  0  0  0  0  0
  138.1924  152.2642  144.7982 C   0  0  0  0  0  0  0  0  0  0  0  0
  1  2  2  0
  1  3  1  0
  2  4  1  0
  4  5  1  0
  3  6  1  0
  6  7  2  3
  4  8  2  0
  8  9  1  0
  3 10  2  0
  8 10  1  0
  7 11  1  0
M  END
$$$$

     RDKit          3D

 11 11  0  0  0  0  0  0  0  0999 V2000
  139.5547  150.5069  140.4449 C   0  0  0  0  0  0  0  0  0  0  0  0
  139.2163  150.0152  139.3729 C   0  0  0  0  0  0  0  0  0  0  0  0
  138.8578  150.3067  141.5860 C   0  0  0  0  0  0  0  0  0  0  0  0
  137.9790  149.2997  139.2383 C   0  0  0  0  0  0  0  0  0  0  0  0
  137.2015  149.2068  140.2792 C   0  0  0  0  0  0  0  0  0  0  0  0
  139.3290  150.8977  142.9151 C   0  0  0  0  0  0  0  0  0  0  0  0
  138.3157  151.4433  143.6698 C   0  0  0  0  0  0  0  0  0  0  0  0
  137.1821  151.2537  143.6221 C   0  0  0  0  0  0  0  0  0  0  0  0
  137.4748  149.8182  141.5431 C   0  0  0  0  0  0  0  0  0  0  0  0
  136.3114  151.8408  144.8341 C   0  0  0  0  0  0  0  0  0  0  0  0
  135.1591  151.3832  145.1297 C   0  0  0  0  0  0  0  0  0  0  0  0
  1  2  2  0
  1  3  1  0
  2  4  1  0
  4  5  2  0
  3  6  1  0
  6  7  2  3
  7  8  1  0
  3  9  2  0
  5  9  1  0
  8 10  1  0
 10 11  2  0
M  END
$$$$

     RDKit          3D

 11 11  0  0  0  0  0  0  0  0999 V2000
  139.5547  150.5069  140.4449 C   0  0  0  0  0  0  0  0  0  0  0  0
  139.2163  150.0152  139.3729 C   0  0  0  0  0  0  0  0  0  0  0  0
  138.8578  150.3067  141.5860 C   0  0  0  0  0  0  0  0  0  0  0  0
  137.9790  149.2997  139.2383 C   0  0  0  0  0  0  0  0  0  0  0  0
  137.2015  149.2068  140.2792 C   0  0  0  0  0  0  0  0  0  0  0  0
  139.3290  150.8977  142.9151 C   0  0  0  0  0  0  0  0  0  0  0  0
  138.3157  151.4433  143.6698 C   0  0  0  0  0  0  0  0  0  0  0  0
  137.1821  151.2537  143.6221 C   0  0  0  0  0  0  0  0  0  0  0  0
  137.4748  149.8182  141.5431 C   0  0  0  0  0  0  0  0  0  0  0  0
  136.3114  151.8408  144.8341 C   0  0  0  0  0  0  0  0  0  0  0  0
  136.6879  152.8782  145.5607 C   0  0  0  0  0  0  0  0  0  0  0  0
  1  2  2  0
  1  3  1  0
  2  4  1  0
  4  5  2  0
  3  6  1  0
  6  7  2  3
  7  8  1  0
  3  9  2  0
  5  9  1  0
  8 10  1  0
 10 11  1  0
M  END
$$$$

     RDKit          3D

 11 11  0  0  0  0  0  0  0  0999 V2000
  140.3037  150.2154  139.4789 Cl  0  0  0  0  0  0  0  0  0  0  0  0
  138.6781  150.1864  140.5322 C   0  0  0  0  0  0  0  0  0  0  0  0
  137.6383  149.3835  140.0932 C   0  0  0  0  0  0  0  0  0  0  0  0
  136.4381  149.4572  140.8191 C   0  0  0  0  0  0  0  0  0  0  0  0
  139.1310  150.7531  141.5085 C   0  0  0  0  0  0  0  0  0  0  0  0
  138.1124  150.7972  142.6518 C   0  0  0  0  0  0  0  0  0  0  0  0
  136.8765  150.4821  142.6413 C   0  0  0  0  0  0  0  0  0  0  0  0
  138.7976  151.4294  144.1199 Cl  0  0  0  0  0  0  0  0  0  0  0  0
  135.3963  148.9136  139.7401 C   0  0  0  0  0  0  0  0  0  0  0  0
  136.1784  151.0404  143.9838 C   0  0  0  0  0  0  0  0  0  0  0  0
  135.9607  150.0589  141.7556 C   0  0  0  0  0  0  0  0  0  0  0  0
  1  2  1  0
  2  3  2  0
  3  4  1  0
  2  5  1  0
  5  6  2  0
  6  7  1  0
  6  8  1  0
  4  9  1  0
  7 10  1  0
  4 11  1  0
  7 11  1  0
M  END
$$$$

     RDKit          3D

 11 11  0  0  0  0  0  0  0  0999 V2000
  138.9995  149.7631  140.3651 C   0  0  0  0  0  0  0  0  0  0  0  0
  138.7139  149.5446  139.1245 C   0  0  0  0  0  0  0  0  0  0  0  0
  138.1832  150.1045  141.2841 C   0  0  0  0  0  0  0  0  0  0  0  0
  137.3206  149.5905  138.6810 C   0  0  0  0  0  0  0  0  0  0  0  0
  136.9836  149.1476  137.4587 O   0  0  0  0  0  0  0  0  0  0  0  0
  136.3407  149.8105  139.5100 C   0  0  0  0  0  0  0  0  0  0  0  0
  136.7408  150.1423  140.9897 C   0  0  0  0  0  0  0  0  0  0  0  0
  138.4309  150.4559  142.6411 C   0  0  0  0  0  0  0  0  0  0  0  0
  139.3766  150.4545  143.3140 C   0  0  0  0  0  0  0  0  0  0  0  0
  137.4622  151.2832  143.3929 C   0  0  0  0  0  0  0  0  0  0  0  0
  138.0438  152.0522  144.5291 C   0  0  0  0  0  0  0  0  0  0  0  0
  1  2  2  0
  1  3  1  0
  2  4  1  0
  4  5  2  0
  4  6  1  0
  3  7  1  0
  6  7  2  0
  3  8  2  3
  8  9  1  0
  8 10  1  0
 10 11  1  0
M  END
$$$$

     RDKit          3D

 11 11  0  0  0  0  0  0  0  0999 V2000
  140.3037  150.2154  139.4789 Cl  0  0  0  0  0  0  0  0  0  0  0  0
  138.6781  150.1864  140.5322 C   0  0  0  0  0  0  0  0  0  0  0  0
  137.6383  149.3835  140.0932 C   0  0  0  0  0  0  0  0  0  0  0  0
  139.0323  150.8827  141.6188 C   0  0  0  0  0  0  0  0  0  0  0  0
  138.0466  150.8334  142.6902 C   0  0  0  0  0  0  0  0  0  0  0  0
  136.8389  150.0632  142.4017 C   0  0  0  0  0  0  0  0  0  0  0  0
  135.7986  150.2251  143.4009 C   0  0  0  0  0  0  0  0  0  0  0  0
  135.8422  150.6650  144.4566 C   0  0  0  0  0  0  0  0  0  0  0  0
  136.4812  149.5245  141.0561 C   0  0  0  0  0  0  0  0  0  0  0  0
  134.8780  150.9246  145.4637 C   0  0  0  0  0  0  0  0  0  0  0  0
  134.9079  152.2864  146.1554 C   0  0  0  0  0  0  0  0  0  0  0  0
  1  2  1  0
  2  3  2  0
  2  4  1  0
  4  5  2  0
  5  6  1  0
  6  7  1  0
  7  8  2  3
  3  9  1  0
  6  9  2  0
  8 10  1  0
 10 11  1  0
M  END
$$$$

     RDKit          3D

 11 11  0  0  0  0  0  0  0  0999 V2000
  140.3037  150.2154  139.4789 Cl  0  0  0  0  0  0  0  0  0  0  0  0
  138.6781  150.1864  140.5322 C   0  0  0  0  0  0  0  0  0  0  0  0
  137.6383  149.3835  140.0932 C   0  0  0  0  0  0  0  0  0  0  0  0
  139.2398  150.7167  141.5765 C   0  0  0  0  0  0  0  0  0  0  0  0
  138.3576  151.0493  142.3779 C   0  0  0  0  0  0  0  0  0  0  0  0
  137.5071  148.8238  138.8337 C   0  0  0  0  0  0  0  0  0  0  0  0
  136.5385  149.6159  141.0306 C   0  0  0  0  0  0  0  0  0  0  0  0
  138.6111  151.8056  143.7154 C   0  0  0  0  0  0  0  0  0  0  0  0
  137.6213  151.9705  144.4764 C   0  0  0  0  0  0  0  0  0  0  0  0
  135.2603  149.2292  140.7959 C   0  0  0  0  0  0  0  0  0  0  0  0
  136.9599  150.4813  142.3358 C   0  0  0  0  0  0  0  0  0  0  0  0
  1  2  1  0
  2  3  1  0
  2  4  2  0
  4  5  1  0
  3  6  1  0
  3  7  2  0
  5  8  1  0
  8  9  2  0
  7 10  1  0
  5 11  2  0
  7 11  1  0
M  END
$$$$

     RDKit          3D

 11 12  0  0  0  0  0  0  0  0999 V2000
  140.3037  150.2154  139.4789 Cl  0  0  0  0  0  0  0  0  0  0  0  0
  138.6781  150.1864  140.5322 C   0  0  0  0  0  0  0  0  0  0  0  0
  137.6383  149.3835  140.0932 C   0  0  0  0  0  0  0  0  0  0  0  0
  136.4381  149.4572  140.8191 C   0  0  0  0  0  0  0  0  0  0  0  0
  139.1310  150.7531  141.5085 C   0  0  0  0  0  0  0  0  0  0  0  0
  138.1124  150.7972  142.6518 C   0  0  0  0  0  0  0  0  0  0  0  0
  136.8765  150.4821  142.6413 C   0  0  0  0  0  0  0  0  0  0  0  0
  138.4674  151.5134  144.0753 C   0  0  0  0  0  0  0  0  0  0  0  0
  136.0588  150.0130  141.8424 C   0  0  0  0  0  0  0  0  0  0  0  0
  136.1580  150.6894  143.8419 C   0  0  0  0  0  0  0  0  0  0  0  0
  137.4122  151.4761  144.7560 C   0  0  0  0  0  0  0  0  0  0  0  0
  1  2  1  0
  2  3  2  0
  3  4  1  0
  2  5  1  0
  5  6  2  0
  6  7  1  0
  6  8  1  0
  4  9  1  0
  7  9  1  0
  7 10  2  0
  8 11  2  0
 10 11  1  0
M  END
$$$$

     RDKit          3D

 11 12  0  0  0  0  0  0  0  0999 V2000
  139.2622  151.0924  142.4036 C   0  0  0  0  0  0  0  0  0  0  0  0
  138.8614  152.1309  142.9028 C   0  0  0  0  0  0  0  0  0  0  0  0
  137.9130  151.7978  143.7819 C   0  0  0  0  0  0  0  0  0  0  0  0
  138.8285  150.3994  141.6024 C   0  0  0  0  0  0  0  0  0  0  0  0
  137.6660  149.9523  141.7639 C   0  0  0  0  0  0  0  0  0  0  0  0
  137.5091  152.5997  144.9568 C   0  0  0  0  0  0  0  0  0  0  0  0
  136.8134  150.7616  143.7776 C   0  0  0  0  0  0  0  0  0  0  0  0
  136.1570  152.8213  145.2706 C   0  0  0  0  0  0  0  0  0  0  0  0
  136.6675  150.2029  142.7120 C   0  0  0  0  0  0  0  0  0  0  0  0
  135.3475  151.6894  145.3130 C   0  0  0  0  0  0  0  0  0  0  0  0
  135.7922  150.7280  144.6769 C   0  0  0  0  0  0  0  0  0  0  0  0
  1  2  1  0
  2  3  2  0
  1  4  2  0
  4  5  1  0
  3  6  1  0
  3  7  1  0
  6  8  1  0
  5  9  2  0
  7  9  1  0
  8 10  1  0
  7 11  1  0
 10 11  1  0
M  END
$$$$

     RDKit          3D

 11 11  0  0  0  0  0  0  0  0999 V2000
  140.3037  150.2154  139.4789 Cl  0  0  0  0  0  0  0  0  0  0  0  0
  138.6781  150.1864  140.5322 C   0  0  0  0  0  0  0  0  0  0  0  0
  137.6383  149.3835  140.0932 C   0  0  0  0  0  0  0  0  0  0  0  0
  138.8659  150.7191  141.4521 C   0  0  0  0  0  0  0  0  0  0  0  0
  138.3205  150.9402  142.2995 C   0  0  0  0  0  0  0  0  0  0  0  0
  136.6328  149.6178  140.7913 C   0  0  0  0  0  0  0  0  0  0  0  0
  135.2653  149.2034  140.3255 C   0  0  0  0  0  0  0  0  0  0  0  0
  138.5419  151.6237  143.7074 C   0  0  0  0  0  0  0  0  0  0  0  0
  137.5352  151.8074  144.6103 C   0  0  0  0  0  0  0  0  0  0  0  0
  136.7876  150.3963  141.9875 C   0  0  0  0  0  0  0  0  0  0  0  0
  136.4104  151.1988  144.6870 C   0  0  0  0  0  0  0  0  0  0  0  0
  1  2  1  0
  2  3  2  0
  2  4  1  0
  4  5  2  0
  3  6  1  0
  6  7  1  0
  5  8  1  0
  8  9  2  3
  5 10  1  0
  6 10  2  0
  9 11  1  0
M  END
$$$$

     RDKit          3D

 11 12  0  0  0  0  0  0  0  0999 V2000
  140.3037  150.2154  139.4789 Cl  0  0  0  0  0  0  0  0  0  0  0  0
  138.6781  150.1864  140.5322 C   0  0  0  0  0  0  0  0  0  0  0  0
  137.6383  149.3835  140.0932 C   0  0  0  0  0  0  0  0  0  0  0  0
  136.4381  149.4572  140.8191 C   0  0  0  0  0  0  0  0  0  0  0  0
  139.1310  150.7531  141.5085 C   0  0  0  0  0  0  0  0  0  0  0  0
  138.1124  150.7972  142.6518 C   0  0  0  0  0  0  0  0  0  0  0  0
  136.8765  150.4821  142.6413 C   0  0  0  0  0  0  0  0  0  0  0  0
  138.4674  151.5134  144.0753 C   0  0  0  0  0  0  0  0  0  0  0  0
  137.4174  151.9366  144.7466 C   0  0  0  0  0  0  0  0  0  0  0  0
  136.1039  150.0460  141.8346 C   0  0  0  0  0  0  0  0  0  0  0  0
  136.2801  151.3049  144.2065 C   0  0  0  0  0  0  0  0  0  0  0  0
  1  2  1  0
  2  3  2  0
  3  4  1  0
  2  5  1  0
  5  6  2  0
  6  7  1  0
  6  8  1  0
  8  9  1  0
  4 10  2  0
  7 10  1  0
  7 11  1  0
  9 11  1  0
M  END
$$$$

     RDKit          3D

 11 12  0  0  0  0  0  0  0  0999 V2000
  138.7095  151.1467  142.6277 C   0  0  0  0  0  0  0  0  0  0  0  0
  138.5278  151.9381  143.5113 C   0  0  0  0  0  0  0  0  0  0  0  0
  137.3840  151.6610  144.3967 C   0  0  0  0  0  0  0  0  0  0  0  0
  136.7653  150.3888  144.2991 C   0  0  0  0  0  0  0  0  0  0  0  0
  138.1237  149.8686  142.3074 C   0  0  0  0  0  0  0  0  0  0  0  0
  138.4285  149.0768  141.2819 C   0  0  0  0  0  0  0  0  0  0  0  0
  138.5072  149.8311  140.0610 C   0  0  0  0  0  0  0  0  0  0  0  0
  137.0799  149.5075  143.3557 C   0  0  0  0  0  0  0  0  0  0  0  0
  136.7861  152.6711  145.4949 C   0  0  0  0  0  0  0  0  0  0  0  0
  139.2190  150.9147  139.8834 C   0  0  0  0  0  0  0  0  0  0  0  0
  139.6107  151.5420  141.1869 C   0  0  0  0  0  0  0  0  0  0  0  0
  1  2  1  0
  2  3  2  0
  3  4  1  0
  1  5  2  0
  5  6  1  0
  6  7  1  0
  4  8  2  0
  5  8  1  0
  3  9  1  0
  7 10  2  0
  1 11  1  0
 10 11  1  0
M  END
$$$$

     RDKit          3D

 11 12  0  0  0  0  0  0  0  0999 V2000
  139.5547  150.5069  140.4449 C   0  0  0  0  0  0  0  0  0  0  0  0
  139.2163  150.0152  139.3729 C   0  0  0  0  0  0  0  0  0  0  0  0
  138.8578  150.3067  141.5860 C   0  0  0  0  0  0  0  0  0  0  0  0
  137.9790  149.2997  139.2383 C   0  0  0  0  0  0  0  0  0  0  0  0
  139.3342  150.9311  142.8842 C   0  0  0  0  0  0  0  0  0  0  0  0
  138.3151  151.4956  143.6096 C   0  0  0  0  0  0  0  0  0  0  0  0
  137.0061  151.1297  143.2686 C   0  0  0  0  0  0  0  0  0  0  0  0
  136.7486  150.4055  142.1315 C   0  0  0  0  0  0  0  0  0  0  0  0
  137.7255  149.8894  141.3524 C   0  0  0  0  0  0  0  0  0  0  0  0
  137.6338  148.7035  138.0428 C   0  0  0  0  0  0  0  0  0  0  0  0
  137.1167  149.2747  140.2612 N   0  0  0  0  0  0  0  0  0  0  0  0
  1  2  2  0
  1  3  1  0
  2  4  1  0
  3  5  1  0
  5  6  2  0
  6  7  1  0
  7  8  2  0
  3  9  2  0
  8  9  1  0
  4 10  1  0
  4 11  2  0
  9 11  1  0
M  END
$$$$

     RDKit          3D

 11 12  0  0  0  0  0  0  0  0999 V2000
  138.9995  149.7631  140.3651 C   0  0  0  0  0  0  0  0  0  0  0  0
  138.7139  149.5446  139.1245 C   0  0  0  0  0  0  0  0  0  0  0  0
  138.1832  150.1045  141.2841 C   0  0  0  0  0  0  0  0  0  0  0  0
  137.3206  149.5905  138.6810 C   0  0  0  0  0  0  0  0  0  0  0  0
  136.9836  149.1476  137.4587 O   0  0  0  0  0  0  0  0  0  0  0  0
  136.3407  149.8105  139.5100 C   0  0  0  0  0  0  0  0  0  0  0  0
  138.5810  150.4927  142.6498 C   0  0  0  0  0  0  0  0  0  0  0  0
  137.7126  150.9908  143.6113 C   0  0  0  0  0  0  0  0  0  0  0  0
  136.4436  151.0244  143.1644 C   0  0  0  0  0  0  0  0  0  0  0  0
  136.7589  150.2574  140.9538 C   0  0  0  0  0  0  0  0  0  0  0  0
  135.8336  150.6391  142.0068 C   0  0  0  0  0  0  0  0  0  0  0  0
  1  2  2  0
  1  3  1  0
  2  4  1  0
  4  5  2  0
  4  6  1  0
  3  7  1  0
  7  8  2  0
  8  9  1  0
  3 10  2  0
  6 10  1  0
  9 11  2  0
 10 11  1  0
M  END
$$$$

     RDKit          3D

 11 11  0  0  0  0  0  0  0  0999 V2000
  140.3037  150.2154  139.4789 Cl  0  0  0  0  0  0  0  0  0  0  0  0
  138.6781  150.1864  140.5322 C   0  0  0  0  0  0  0  0  0  0  0  0
  137.6383  149.3835  140.0932 C   0  0  0  0  0  0  0  0  0  0  0  0
  138.7726  150.9278  141.6514 C   0  0  0  0  0  0  0  0  0  0  0  0
  137.6838  150.8829  142.5424 C   0  0  0  0  0  0  0  0  0  0  0  0
  137.8361  151.5203  143.8923 C   0  0  0  0  0  0  0  0  0  0  0  0
  136.6904  151.6917  144.6959 C   0  0  0  0  0  0  0  0  0  0  0  0
  136.5244  149.6188  140.7839 C   0  0  0  0  0  0  0  0  0  0  0  0
  136.6848  152.5017  145.8483 C   0  0  0  0  0  0  0  0  0  0  0  0
  136.5024  150.2955  141.9609 C   0  0  0  0  0  0  0  0  0  0  0  0
  135.3232  152.9312  146.2776 C   0  0  0  0  0  0  0  0  0  0  0  0
  1  2  1  0
  2  3  1  0
  2  4  2  0
  4  5  1  0
  5  6  1  0
  6  7  2  3
  3  8  2  0
  7  9  1  0
  5 10  2  0
  8 10  1  0
  9 11  1  0
M  END
$$$$

     RDKit          3D

 11 12  0  0  0  0  0  0  0  0999 V2000
  139.3434  149.9921  140.5876 C   0  0  0  0  0  0  0  0  0  0  0  0
  138.9518  149.9236  139.3657 C   0  0  0  0  0  0  0  0  0  0  0  0
  138.6168  150.1115  141.6414 C   0  0  0  0  0  0  0  0  0  0  0  0
  137.1898  149.8671  141.8329 C   0  0  0  0  0  0  0  0  0  0  0  0
  136.5148  149.7637  140.5812 C   0  0  0  0  0  0  0  0  0  0  0  0
  139.1786  150.4016  143.1316 C   0  0  0  0  0  0  0  0  0  0  0  0
  138.3339  151.1454  143.8950 C   0  0  0  0  0  0  0  0  0  0  0  0
  136.9941  151.0549  143.8223 C   0  0  0  0  0  0  0  0  0  0  0  0
  136.3317  150.3439  142.8413 C   0  0  0  0  0  0  0  0  0  0  0  0
  136.2255  151.6766  144.8447 O   0  0  0  0  0  0  0  0  0  0  0  0
  137.4982  149.6360  139.1020 C   0  0  0  0  0  0  0  0  0  0  0  0
  1  2  2  0
  1  3  1  0
  3  4  1  0
  4  5  2  0
  3  6  1  0
  6  7  2  0
  7  8  1  0
  4  9  1  0
  8  9  1  0
  8 10  2  0
  2 11  1  0
  5 11  1  0
M  END
$$$$

     RDKit          3D

 11 12  0  0  0  0  0  0  0  0999 V2000
  139.2622  151.0924  142.4036 C   0  0  0  0  0  0  0  0  0  0  0  0
  138.8614  152.1309  142.9028 C   0  0  0  0  0  0  0  0  0  0  0  0
  137.7834  151.8919  143.8933 C   0  0  0  0  0  0  0  0  0  0  0  0
  137.3599  150.5399  144.0621 C   0  0  0  0  0  0  0  0  0  0  0  0
  136.3253  150.4642  145.1224 C   0  0  0  0  0  0  0  0  0  0  0  0
  139.2685  149.7551  142.8049 C   0  0  0  0  0  0  0  0  0  0  0  0
  138.1336  149.4947  143.5597 C   0  0  0  0  0  0  0  0  0  0  0  0
  140.3504  151.2868  141.2788 C   0  0  0  0  0  0  0  0  0  0  0  0
  135.7725  151.6174  145.4187 C   0  0  0  0  0  0  0  0  0  0  0  0
  136.9202  152.7943  144.6063 C   0  0  0  0  0  0  0  0  0  0  0  0
  140.0152  150.5547  140.0103 C   0  0  0  0  0  0  0  0  0  0  0  0
  1  2  1  0
  2  3  2  0
  3  4  1  0
  4  5  2  0
  1  6  1  0
  4  7  1  0
  6  7  2  0
  1  8  1  0
  5  9  1  0
  3 10  1  0
  9 10  2  0
  8 11  1  0
M  END
$$$$

     RDKit          3D

 11 11  0  0  0  0  0  0  0  0999 V2000
  138.9995  149.7631  140.3651 C   0  0  0  0  0  0  0  0  0  0  0  0
  138.7139  149.5446  139.1245 C   0  0  0  0  0  0  0  0  0  0  0  0
  138.1832  150.1045  141.2841 C   0  0  0  0  0  0  0  0  0  0  0  0
  137.3206  149.5905  138.6810 C   0  0  0  0  0  0  0  0  0  0  0  0
  136.9836  149.1476  137.4587 O   0  0  0  0  0  0  0  0  0  0  0  0
  138.6050  150.6678  142.5819 C   0  0  0  0  0  0  0  0  0  0  0  0
  136.4341  149.9060  139.6240 C   0  0  0  0  0  0  0  0  0  0  0  0
  137.7271  151.0032  143.6131 C   0  0  0  0  0  0  0  0  0  0  0  0
  136.7191  150.2466  140.9960 C   0  0  0  0  0  0  0  0  0  0  0  0
  136.4974  150.7120  143.6050 C   0  0  0  0  0  0  0  0  0  0  0  0
  138.2952  151.7645  144.9255 C   0  0  0  0  0  0  0  0  0  0  0  0
  1  2  2  0
  1  3  1  0
  2  4  1  0
  4  5  2  0
  3  6  1  0
  4  7  1  0
  6  8  2  3
  3  9  2  0
  7  9  2  0
  8 10  1  0
  8 11  1  0
M  END
$$$$

     RDKit          3D

 11 11  0  0  0  0  0  0  0  0999 V2000
  140.3037  150.2154  139.4789 Cl  0  0  0  0  0  0  0  0  0  0  0  0
  138.6781  150.1864  140.5322 C   0  0  0  0  0  0  0  0  0  0  0  0
  137.6383  149.3835  140.0932 C   0  0  0  0  0  0  0  0  0  0  0  0
  139.0323  150.8827  141.6188 C   0  0  0  0  0  0  0  0  0  0  0  0
  138.0466  150.8334  142.6902 C   0  0  0  0  0  0  0  0  0  0  0  0
  136.8389  150.0632  142.4017 C   0  0  0  0  0  0  0  0  0  0  0  0
  135.7986  150.2251  143.4009 C   0  0  0  0  0  0  0  0  0  0  0  0
  136.5576  149.5474  141.0893 C   0  0  0  0  0  0  0  0  0  0  0  0
  135.5013  151.2728  144.0125 C   0  0  0  0  0  0  0  0  0  0  0  0
  134.8712  151.2905  145.3805 C   0  0  0  0  0  0  0  0  0  0  0  0
  135.2437  150.5698  146.3051 C   0  0  0  0  0  0  0  0  0  0  0  0
  1  2  1  0
  2  3  2  0
  2  4  1  0
  4  5  2  0
  5  6  1  0
  6  7  1  0
  3  8  1  0
  6  8  2  0
  7  9  2  3
  9 10  1  0
 10 11  2  0
M  END
$$$$

     RDKit          3D

 11 12  0  0  0  0  0  0  0  0999 V2000
  140.3037  150.2154  139.4789 Cl  0  0  0  0  0  0  0  0  0  0  0  0
  138.6781  150.1864  140.5322 C   0  0  0  0  0  0  0  0  0  0  0  0
  137.6383  149.3835  140.0932 C   0  0  0  0  0  0  0  0  0  0  0  0
  136.4381  149.4572  140.8191 C   0  0  0  0  0  0  0  0  0  0  0  0
  139.1310  150.7531  141.5085 C   0  0  0  0  0  0  0  0  0  0  0  0
  138.1124  150.7972  142.6518 C   0  0  0  0  0  0  0  0  0  0  0  0
  136.8765  150.4821  142.6413 C   0  0  0  0  0  0  0  0  0  0  0  0
  138.4674  151.5134  144.0753 C   0  0  0  0  0  0  0  0  0  0  0  0
  137.4174  151.9366  144.7466 C   0  0  0  0  0  0  0  0  0  0  0  0
  136.0263  149.9500  141.8836 C   0  0  0  0  0  0  0  0  0  0  0  0
  136.2986  151.0707  143.9370 N   0  0  0  0  0  0  0  0  0  0  0  0
  1  2  1  0
  2  3  2  0
  3  4  1  0
  2  5  1  0
  5  6  2  0
  6  7  1  0
  6  8  1  0
  8  9  1  0
  4 10  2  0
  7 10  1  0
  7 11  2  0
  9 11  1  0
M  END
$$$$

     RDKit          3D

 11 11  0  0  0  0  0  0  0  0999 V2000
  140.3037  150.2154  139.4789 Cl  0  0  0  0  0  0  0  0  0  0  0  0
  138.6781  150.1864  140.5322 C   0  0  0  0  0  0  0  0  0  0  0  0
  137.6383  149.3835  140.0932 C   0  0  0  0  0  0  0  0  0  0  0  0
  138.7726  150.9278  141.6514 C   0  0  0  0  0  0  0  0  0  0  0  0
  138.1293  150.9128  142.4416 C   0  0  0  0  0  0  0  0  0  0  0  0
  137.5753  148.9052  138.7236 C   0  0  0  0  0  0  0  0  0  0  0  0
  136.7592  150.1928  142.4640 C   0  0  0  0  0  0  0  0  0  0  0  0
  135.8311  150.3482  143.4723 C   0  0  0  0  0  0  0  0  0  0  0  0
  136.4080  149.4875  140.9561 C   0  0  0  0  0  0  0  0  0  0  0  0
  136.3867  151.2235  144.5028 C   0  0  0  0  0  0  0  0  0  0  0  0
  137.1782  150.9821  145.3320 O   0  0  0  0  0  0  0  0  0  0  0  0
  1  2  1  0
  2  3  1  0
  2  4  2  0
  4  5  1  0
  3  6  1  0
  5  7  2  0
  7  8  1  0
  3  9  2  0
  7  9  1  0
  8 10  1  0
 10 11  1  0
M  END
$$$$

     RDKit          3D

 11 11  0  0  0  0  0  0  0  0999 V2000
  138.9995  149.7631  140.3651 C   0  0  0  0  0  0  0  0  0  0  0  0
  138.7139  149.5446  139.1245 C   0  0  0  0  0  0  0  0  0  0  0  0
  138.1832  150.1045  141.2841 C   0  0  0  0  0  0  0  0  0  0  0  0
  137.3206  149.5905  138.6810 C   0  0  0  0  0  0  0  0  0  0  0  0
  136.9836  149.1476  137.4587 O   0  0  0  0  0  0  0  0  0  0  0  0
  138.6050  150.6678  142.5819 C   0  0  0  0  0  0  0  0  0  0  0  0
  136.4341  149.9060  139.6240 C   0  0  0  0  0  0  0  0  0  0  0  0
  137.7271  151.0032  143.6131 C   0  0  0  0  0  0  0  0  0  0  0  0
  136.7394  150.2261  140.9665 C   0  0  0  0  0  0  0  0  0  0  0  0
  136.5026  150.6647  143.6570 C   0  0  0  0  0  0  0  0  0  0  0  0
  138.4234  151.4982  144.8396 C   0  0  0  0  0  0  0  0  0  0  0  0
  1  2  2  0
  1  3  1  0
  2  4  1  0
  4  5  2  0
  3  6  1  0
  4  7  1  0
  6  8  2  3
  3  9  2  0
  7  9  1  0
  8 10  1  0
  8 11  1  0
M  END
$$$$

     RDKit          3D

 11 12  0  0  0  0  0  0  0  0999 V2000
  139.2622  151.0924  142.4036 C   0  0  0  0  0  0  0  0  0  0  0  0
  138.8614  152.1309  142.9028 C   0  0  0  0  0  0  0  0  0  0  0  0
  137.9130  151.7978  143.7819 C   0  0  0  0  0  0  0  0  0  0  0  0
  138.7624  149.7959  142.5212 C   0  0  0  0  0  0  0  0  0  0  0  0
  137.2978  152.8713  144.6403 C   0  0  0  0  0  0  0  0  0  0  0  0
  137.4025  150.4512  144.0046 C   0  0  0  0  0  0  0  0  0  0  0  0
  136.4450  150.2740  145.0854 C   0  0  0  0  0  0  0  0  0  0  0  0
  137.9303  149.4915  143.4638 N   0  0  0  0  0  0  0  0  0  0  0  0
  135.9092  151.5007  145.6050 C   0  0  0  0  0  0  0  0  0  0  0  0
  134.8025  151.2935  146.6565 C   0  0  0  0  0  0  0  0  0  0  0  0
  136.2650  152.7717  145.4098 C   0  0  0  0  0  0  0  0  0  0  0  0
  1  2  1  0
  2  3  2  0
  1  4  2  0
  3  5  1  0
  3  6  1  0
  6  7  1  0
  4  8  1  0
  6  8  2  0
  7  9  2  0
  9 10  1  0
  5 11  2  0
  9 11  1  0
M  END
$$$$

     RDKit          3D

 11 11  0  0  0  0  0  0  0  0999 V2000
  138.9995  149.7631  140.3651 C   0  0  0  0  0  0  0  0  0  0  0  0
  138.7139  149.5446  139.1245 C   0  0  0  0  0  0  0  0  0  0  0  0
  138.1832  150.1045  141.2841 C   0  0  0  0  0  0  0  0  0  0  0  0
  137.3206  149.5905  138.6810 C   0  0  0  0  0  0  0  0  0  0  0  0
  136.9836  149.1476  137.4587 O   0  0  0  0  0  0  0  0  0  0  0  0
  138.6050  150.6678  142.5819 C   0  0  0  0  0  0  0  0  0  0  0  0
  136.9066  150.4946  141.4621 C   0  0  0  0  0  0  0  0  0  0  0  0
  136.2180  150.8351  142.5870 C   0  0  0  0  0  0  0  0  0  0  0  0
  137.0460  151.1181  143.6640 C   0  0  0  0  0  0  0  0  0  0  0  0
  138.2503  150.9517  143.7094 C   0  0  0  0  0  0  0  0  0  0  0  0
  136.1067  151.6858  145.1350 Cl  0  0  0  0  0  0  0  0  0  0  0  0
  1  2  2  3
  1  3  1  0
  2  4  1  0
  4  5  2  0
  3  6  1  0
  3  7  2  0
  7  8  1  0
  8  9  2  0
  6 10  2  0
  9 10  1  0
  9 11  1  0
M  END
$$$$

     RDKit          3D

 11 12  0  0  0  0  0  0  0  0999 V2000
  139.5359  150.8909  142.2321 C   0  0  0  0  0  0  0  0  0  0  0  0
  139.0004  151.9972  142.6390 C   0  0  0  0  0  0  0  0  0  0  0  0
  138.9548  149.6528  142.4227 C   0  0  0  0  0  0  0  0  0  0  0  0
  137.7523  151.8922  143.4311 C   0  0  0  0  0  0  0  0  0  0  0  0
  137.3027  153.0151  144.1104 C   0  0  0  0  0  0  0  0  0  0  0  0
  136.3820  152.7483  145.0832 C   0  0  0  0  0  0  0  0  0  0  0  0
  136.0517  151.4296  145.3456 C   0  0  0  0  0  0  0  0  0  0  0  0
  137.3608  150.5123  143.8367 C   0  0  0  0  0  0  0  0  0  0  0  0
  135.6617  153.9109  145.7972 C   0  0  0  0  0  0  0  0  0  0  0  0
  136.1195  150.3864  144.4093 C   0  0  0  0  0  0  0  0  0  0  0  0
  137.9303  149.3678  143.2418 C   0  0  0  0  0  0  0  0  0  0  0  0
  1  2  2  0
  1  3  1  0
  2  4  1  0
  4  5  1  0
  5  6  2  0
  6  7  1  0
  4  8  2  0
  6  9  1  0
  7 10  1  0
  8 10  1  0
  3 11  2  0
  8 11  1  0
M  END
$$$$

     RDKit          3D

 11 11  0  0  0  0  0  0  0  0999 V2000
  140.3037  150.2154  139.4789 Cl  0  0  0  0  0  0  0  0  0  0  0  0
  138.6781  150.1864  140.5322 C   0  0  0  0  0  0  0  0  0  0  0  0
  137.6383  149.3835  140.0932 C   0  0  0  0  0  0  0  0  0  0  0  0
  138.7726  150.9278  141.6514 C   0  0  0  0  0  0  0  0  0  0  0  0
  138.1293  150.9128  142.4416 C   0  0  0  0  0  0  0  0  0  0  0  0
  138.2155  151.5104  143.8856 C   0  0  0  0  0  0  0  0  0  0  0  0
  136.8872  150.1827  142.6103 C   0  0  0  0  0  0  0  0  0  0  0  0
  137.6351  148.9096  138.8038 C   0  0  0  0  0  0  0  0  0  0  0  0
  136.0182  150.3261  143.7393 C   0  0  0  0  0  0  0  0  0  0  0  0
  136.6524  151.0298  144.7822 C   0  0  0  0  0  0  0  0  0  0  0  0
  137.7289  151.5505  144.9065 C   0  0  0  0  0  0  0  0  0  0  0  0
  1  2  1  0
  2  3  1  0
  2  4  2  3
  4  5  1  0
  5  6  1  0
  5  7  2  0
  3  8  1  0
  7  9  1  0
  9 10  2  0
  6 11  2  0
 10 11  1  0
M  END
$$$$

     RDKit          3D

 11 11  0  0  0  0  0  0  0  0999 V2000
  139.5547  150.5069  140.4449 C   0  0  0  0  0  0  0  0  0  0  0  0
  139.2163  150.0152  139.3729 C   0  0  0  0  0  0  0  0  0  0  0  0
  138.8578  150.3067  141.5860 C   0  0  0  0  0  0  0  0  0  0  0  0
  139.2256  150.3492  142.8903 C   0  0  0  0  0  0  0  0  0  0  0  0
  138.5566  151.2848  143.6742 C   0  0  0  0  0  0  0  0  0  0  0  0
  137.8562  149.4560  139.3195 C   0  0  0  0  0  0  0  0  0  0  0  0
  137.4734  151.5824  143.4210 C   0  0  0  0  0  0  0  0  0  0  0  0
  137.4375  150.1429  141.2506 C   0  0  0  0  0  0  0  0  0  0  0  0
  136.4212  151.9948  144.3706 C   0  0  0  0  0  0  0  0  0  0  0  0
  136.8280  149.9181  140.1457 C   0  0  0  0  0  0  0  0  0  0  0  0
  135.2902  151.6138  144.4765 C   0  0  0  0  0  0  0  0  0  0  0  0
  1  2  2  0
  1  3  1  0
  3  4  1  0
  4  5  2  3
  2  6  1  0
  5  7  1  0
  3  8  2  0
  7  9  2  3
  6 10  2  0
  8 10  1  0
  9 11  1  0
M  END
$$$$

     RDKit          3D

 11 11  0  0  0  0  0  0  0  0999 V2000
  140.3037  150.2154  139.4789 Cl  0  0  0  0  0  0  0  0  0  0  0  0
  138.6781  150.1864  140.5322 C   0  0  0  0  0  0  0  0  0  0  0  0
  137.6383  149.3835  140.0932 C   0  0  0  0  0  0  0  0  0  0  0  0
  138.7493  150.9487  141.6722 C   0  0  0  0  0  0  0  0  0  0  0  0
  136.5607  149.6040  140.7945 C   0  0  0  0  0  0  0  0  0  0  0  0
  135.2955  149.0163  140.1824 C   0  0  0  0  0  0  0  0  0  0  0  0
  137.8600  150.9700  142.4407 C   0  0  0  0  0  0  0  0  0  0  0  0
  137.9409  151.6473  143.8073 C   0  0  0  0  0  0  0  0  0  0  0  0
  136.6280  150.3687  141.9696 C   0  0  0  0  0  0  0  0  0  0  0  0
  136.8484  151.5256  144.6692 C   0  0  0  0  0  0  0  0  0  0  0  0
  136.0601  152.6149  145.0632 C   0  0  0  0  0  0  0  0  0  0  0  0
  1  2  1  0
  2  3  2  0
  2  4  1  0
  3  5  1  0
  5  6  1  0
  4  7  2  0
  7  8  1  0
  5  9  2  0
  7  9  1  0
  8 10  1  0
 10 11  1  0
M  END
$$$$

     RDKit          3D

 11 12  0  0  0  0  0  0  0  0999 V2000
  140.3037  150.2154  139.4789 Cl  0  0  0  0  0  0  0  0  0  0  0  0
  138.6781  150.1864  140.5322 C   0  0  0  0  0  0  0  0  0  0  0  0
  137.6383  149.3835  140.0932 C   0  0  0  0  0  0  0  0  0  0  0  0
  136.4381  149.4572  140.8191 C   0  0  0  0  0  0  0  0  0  0  0  0
  139.1310  150.7531  141.5085 C   0  0  0  0  0  0  0  0  0  0  0  0
  138.1124  150.7972  142.6518 C   0  0  0  0  0  0  0  0  0  0  0  0
  136.8765  150.4821  142.6413 C   0  0  0  0  0  0  0  0  0  0  0  0
  138.4674  151.5134  144.0753 C   0  0  0  0  0  0  0  0  0  0  0  0
  137.4174  151.9366  144.7466 C   0  0  0  0  0  0  0  0  0  0  0  0
  136.1039  150.0460  141.8346 C   0  0  0  0  0  0  0  0  0  0  0  0
  136.3087  151.0929  143.9183 N   0  0  0  0  0  0  0  0  0  0  0  0
  1  2  1  0
  2  3  2  0
  3  4  1  0
  2  5  1  0
  5  6  2  0
  6  7  1  0
  6  8  1  0
  8  9  1  0
  4 10  2  0
  7 10  1  0
  7 11  1  0
  9 11  1  0
M  END
$$$$

     RDKit          3D

 11 12  0  0  0  0  0  0  0  0999 V2000
  140.3037  150.2154  139.4789 Cl  0  0  0  0  0  0  0  0  0  0  0  0
  138.6781  150.1864  140.5322 C   0  0  0  0  0  0  0  0  0  0  0  0
  137.6383  149.3835  140.0932 C   0  0  0  0  0  0  0  0  0  0  0  0
  136.4381  149.4572  140.8191 C   0  0  0  0  0  0  0  0  0  0  0  0
  139.1310  150.7531  141.5085 C   0  0  0  0  0  0  0  0  0  0  0  0
  138.1124  150.7972  142.6518 C   0  0  0  0  0  0  0  0  0  0  0  0
  136.8765  150.4821  142.6413 C   0  0  0  0  0  0  0  0  0  0  0  0
  138.4674  151.5134  144.0753 C   0  0  0  0  0  0  0  0  0  0  0  0
  136.1166  151.0225  143.8728 C   0  0  0  0  0  0  0  0  0  0  0  0
  135.9973  149.9837  141.8347 C   0  0  0  0  0  0  0  0  0  0  0  0
  137.3120  151.4853  144.7292 C   0  0  0  0  0  0  0  0  0  0  0  0
  1  2  1  0
  2  3  2  0
  3  4  1  0
  2  5  1  0
  5  6  2  0
  6  7  1  0
  6  8  1  0
  7  9  1  0
  4 10  1  0
  7 10  1  0
  8 11  1  0
  9 11  1  0
M  END
$$$$

     RDKit          3D

 11 11  0  0  0  0  0  0  0  0999 V2000
  139.5359  150.8909  142.2321 C   0  0  0  0  0  0  0  0  0  0  0  0
  139.0142  150.3964  141.0601 C   0  0  0  0  0  0  0  0  0  0  0  0
  138.6975  150.9512  143.4052 C   0  0  0  0  0  0  0  0  0  0  0  0
  137.7125  149.9444  141.0467 C   0  0  0  0  0  0  0  0  0  0  0  0
  137.5173  150.9386  143.4780 C   0  0  0  0  0  0  0  0  0  0  0  0
  136.7904  150.2169  142.0323 C   0  0  0  0  0  0  0  0  0  0  0  0
  139.8082  150.2401  139.8593 C   0  0  0  0  0  0  0  0  0  0  0  0
  141.2267  150.2059  139.9745 C   0  0  0  0  0  0  0  0  0  0  0  0
  139.2999  150.1926  138.6351 C   0  0  0  0  0  0  0  0  0  0  0  0
  136.5185  151.2962  144.6950 C   0  0  0  0  0  0  0  0  0  0  0  0
  138.2964  149.3039  138.2897 C   0  0  0  0  0  0  0  0  0  0  0  0
  1  2  2  0
  1  3  1  0
  2  4  1  0
  3  5  2  0
  4  6  2  0
  5  6  1  0
  2  7  1  0
  7  8  1  0
  7  9  2  3
  5 10  1  0
  9 11  1  0
M  END
$$$$

     RDKit          3D

 11 11  0  0  0  0  0  0  0  0999 V2000
  139.2622  151.0924  142.4036 C   0  0  0  0  0  0  0  0  0  0  0  0
  138.8614  152.1309  142.9028 C   0  0  0  0  0  0  0  0  0  0  0  0
  137.9130  151.7978  143.7819 C   0  0  0  0  0  0  0  0  0  0  0  0
  138.8285  150.3994  141.6024 C   0  0  0  0  0  0  0  0  0  0  0  0
  137.6660  149.9523  141.7639 C   0  0  0  0  0  0  0  0  0  0  0  0
  137.5091  152.5997  144.9568 C   0  0  0  0  0  0  0  0  0  0  0  0
  136.8134  150.7616  143.7776 C   0  0  0  0  0  0  0  0  0  0  0  0
  136.9830  149.3473  140.5515 C   0  0  0  0  0  0  0  0  0  0  0  0
  136.3027  153.1369  145.0531 C   0  0  0  0  0  0  0  0  0  0  0  0
  135.2893  152.5028  145.8544 C   0  0  0  0  0  0  0  0  0  0  0  0
  136.7812  150.2989  142.4538 C   0  0  0  0  0  0  0  0  0  0  0  0
  1  2  1  0
  2  3  2  0
  1  4  2  0
  4  5  1  0
  3  6  1  0
  3  7  1  0
  5  8  1  0
  6  9  1  0
  9 10  1  0
  5 11  2  0
  7 11  1  0
M  END
$$$$

     RDKit          3D

 11 12  0  0  0  0  0  0  0  0999 V2000
  140.3037  150.2154  139.4789 Cl  0  0  0  0  0  0  0  0  0  0  0  0
  138.6781  150.1864  140.5322 C   0  0  0  0  0  0  0  0  0  0  0  0
  137.6383  149.3835  140.0932 C   0  0  0  0  0  0  0  0  0  0  0  0
  136.4381  149.4572  140.8191 C   0  0  0  0  0  0  0  0  0  0  0  0
  139.1310  150.7531  141.5085 C   0  0  0  0  0  0  0  0  0  0  0  0
  138.1124  150.7972  142.6518 C   0  0  0  0  0  0  0  0  0  0  0  0
  136.8765  150.4821  142.6413 C   0  0  0  0  0  0  0  0  0  0  0  0
  138.4674  151.5134  144.0753 C   0  0  0  0  0  0  0  0  0  0  0  0
  136.1166  151.0225  143.8728 C   0  0  0  0  0  0  0  0  0  0  0  0
  135.9973  149.9837  141.8347 C   0  0  0  0  0  0  0  0  0  0  0  0
  136.8487  151.4023  144.7793 C   0  0  0  0  0  0  0  0  0  0  0  0
  1  2  1  0
  2  3  2  0
  3  4  1  0
  2  5  1  0
  5  6  2  0
  6  7  1  0
  6  8  1  0
  7  9  1  0
  4 10  1  0
  7 10  2  0
  8 11  1  0
  9 11  2  0
M  END
$$$$

     RDKit          3D

 11 12  0  0  0  0  0  0  0  0999 V2000
  138.7095  151.1467  142.6277 C   0  0  0  0  0  0  0  0  0  0  0  0
  138.5278  151.9381  143.5113 C   0  0  0  0  0  0  0  0  0  0  0  0
  137.3840  151.6610  144.3967 C   0  0  0  0  0  0  0  0  0  0  0  0
  136.7653  150.3888  144.2991 C   0  0  0  0  0  0  0  0  0  0  0  0
  138.1237  149.8686  142.3074 C   0  0  0  0  0  0  0  0  0  0  0  0
  138.4285  149.0768  141.2819 C   0  0  0  0  0  0  0  0  0  0  0  0
  135.8076  150.0815  145.2839 C   0  0  0  0  0  0  0  0  0  0  0  0
  138.5016  149.8414  140.0586 C   0  0  0  0  0  0  0  0  0  0  0  0
  137.1329  149.5559  143.3120 N   0  0  0  0  0  0  0  0  0  0  0  0
  139.1794  150.9473  139.9366 C   0  0  0  0  0  0  0  0  0  0  0  0
  139.8895  151.2016  141.1408 C   0  0  0  0  0  0  0  0  0  0  0  0
  1  2  1  0
  2  3  2  0
  3  4  1  0
  1  5  2  0
  5  6  1  0
  4  7  1  0
  6  8  1  0
  4  9  2  0
  5  9  1  0
  8 10  1  0
  1 11  1  0
 10 11  1  0
M  END
$$$$

     RDKit          3D

 11 11  0  0  0  0  0  0  0  0999 V2000
  140.3037  150.2154  139.4789 Cl  0  0  0  0  0  0  0  0  0  0  0  0
  138.6781  150.1864  140.5322 C   0  0  0  0  0  0  0  0  0  0  0  0
  137.6383  149.3835  140.0932 C   0  0  0  0  0  0  0  0  0  0  0  0
  138.7726  150.9278  141.6514 C   0  0  0  0  0  0  0  0  0  0  0  0
  137.6838  150.8829  142.5424 C   0  0  0  0  0  0  0  0  0  0  0  0
  137.8361  151.5203  143.8923 C   0  0  0  0  0  0  0  0  0  0  0  0
  136.6449  150.1065  142.0564 C   0  0  0  0  0  0  0  0  0  0  0  0
  136.5000  149.4542  140.7791 C   0  0  0  0  0  0  0  0  0  0  0  0
  138.8708  152.2230  144.2233 C   0  0  0  0  0  0  0  0  0  0  0  0
  136.8707  151.4492  144.8653 C   0  0  0  0  0  0  0  0  0  0  0  0
  135.7831  151.9778  144.9186 C   0  0  0  0  0  0  0  0  0  0  0  0
  1  2  1  0
  2  3  1  0
  2  4  2  0
  4  5  1  0
  5  6  1  0
  5  7  2  0
  3  8  2  0
  7  8  1  0
  6  9  1  0
  6 10  2  3
 10 11  1  0
M  END
$$$$

     RDKit          3D

 11 12  0  0  0  0  0  0  0  0999 V2000
  139.5359  150.8909  142.2321 C   0  0  0  0  0  0  0  0  0  0  0  0
  139.0004  151.9972  142.6390 C   0  0  0  0  0  0  0  0  0  0  0  0
  138.9548  149.6528  142.4227 C   0  0  0  0  0  0  0  0  0  0  0  0
  137.7523  151.8922  143.4311 C   0  0  0  0  0  0  0  0  0  0  0  0
  137.3027  153.0151  144.1104 C   0  0  0  0  0  0  0  0  0  0  0  0
  136.3820  152.7483  145.0832 C   0  0  0  0  0  0  0  0  0  0  0  0
  136.0517  151.4296  145.3456 C   0  0  0  0  0  0  0  0  0  0  0  0
  137.3608  150.5123  143.8367 C   0  0  0  0  0  0  0  0  0  0  0  0
  135.6617  153.9109  145.7972 C   0  0  0  0  0  0  0  0  0  0  0  0
  136.1195  150.3864  144.4093 C   0  0  0  0  0  0  0  0  0  0  0  0
  137.9303  149.3678  143.2418 N   0  0  0  0  0  0  0  0  0  0  0  0
  1  2  2  0
  1  3  1  0
  2  4  1  0
  4  5  1  0
  5  6  2  0
  6  7  1  0
  4  8  2  0
  6  9  1  0
  7 10  1  0
  8 10  1  0
  3 11  2  0
  8 11  1  0
M  END
$$$$

     RDKit          3D

 11 12  0  0  0  0  0  0  0  0999 V2000
  139.2622  151.0924  142.4036 C   0  0  0  0  0  0  0  0  0  0  0  0
  138.8614  152.1309  142.9028 C   0  0  0  0  0  0  0  0  0  0  0  0
  137.9130  151.7978  143.7819 C   0  0  0  0  0  0  0  0  0  0  0  0
  138.8285  150.3994  141.6024 C   0  0  0  0  0  0  0  0  0  0  0  0
  137.6660  149.9523  141.7639 C   0  0  0  0  0  0  0  0  0  0  0  0
  137.5091  152.5997  144.9568 C   0  0  0  0  0  0  0  0  0  0  0  0
  136.8134  150.7616  143.7776 C   0  0  0  0  0  0  0  0  0  0  0  0
  136.1570  152.8213  145.2706 C   0  0  0  0  0  0  0  0  0  0  0  0
  136.6675  150.2029  142.7120 C   0  0  0  0  0  0  0  0  0  0  0  0
  135.3475  151.6894  145.3130 C   0  0  0  0  0  0  0  0  0  0  0  0
  135.7702  150.6969  144.8945 C   0  0  0  0  0  0  0  0  0  0  0  0
  1  2  1  0
  2  3  2  0
  1  4  2  0
  4  5  1  0
  3  6  1  0
  3  7  1  0
  6  8  1  0
  5  9  2  0
  7  9  1  0
  8 10  1  0
  7 11  2  0
 10 11  1  0
M  END
$$$$

     RDKit          3D

 11 11  0  0  0  0  0  0  0  0999 V2000
  139.5359  150.8909  142.2321 C   0  0  0  0  0  0  0  0  0  0  0  0
  139.0142  150.3964  141.0601 C   0  0  0  0  0  0  0  0  0  0  0  0
  138.6975  150.9512  143.4052 C   0  0  0  0  0  0  0  0  0  0  0  0
  137.7125  149.9444  141.0467 C   0  0  0  0  0  0  0  0  0  0  0  0
  137.5173  150.9386  143.4780 C   0  0  0  0  0  0  0  0  0  0  0  0
  136.7904  150.2169  142.0323 C   0  0  0  0  0  0  0  0  0  0  0  0
  139.8082  150.2401  139.8593 C   0  0  0  0  0  0  0  0  0  0  0  0
  141.2267  150.2059  139.9745 C   0  0  0  0  0  0  0  0  0  0  0  0
  139.2999  150.1926  138.6351 C   0  0  0  0  0  0  0  0  0  0  0  0
  136.5185  151.2962  144.6950 C   0  0  0  0  0  0  0  0  0  0  0  0
  139.7063  150.5536  137.6254 O   0  0  0  0  0  0  0  0  0  0  0  0
  1  2  2  0
  1  3  1  0
  2  4  1  0
  3  5  2  0
  4  6  2  0
  5  6  1  0
  2  7  1  0
  7  8  1  0
  7  9  2  3
  5 10  1  0
  9 11  1  0
M  END
$$$$

     RDKit          3D

 11 11  0  0  0  0  0  0  0  0999 V2000
  138.9995  149.7631  140.3651 C   0  0  0  0  0  0  0  0  0  0  0  0
  138.7139  149.5446  139.1245 C   0  0  0  0  0  0  0  0  0  0  0  0
  138.1832  150.1045  141.2841 C   0  0  0  0  0  0  0  0  0  0  0  0
  137.3206  149.5905  138.6810 C   0  0  0  0  0  0  0  0  0  0  0  0
  136.9836  149.1476  137.4587 O   0  0  0  0  0  0  0  0  0  0  0  0
  138.6050  150.6678  142.5819 C   0  0  0  0  0  0  0  0  0  0  0  0
  136.9066  150.4946  141.4621 C   0  0  0  0  0  0  0  0  0  0  0  0
  136.2180  150.8351  142.5870 C   0  0  0  0  0  0  0  0  0  0  0  0
  137.0460  151.1181  143.6640 C   0  0  0  0  0  0  0  0  0  0  0  0
  138.3225  150.9200  143.5287 C   0  0  0  0  0  0  0  0  0  0  0  0
  136.2196  151.6477  145.1282 C   0  0  0  0  0  0  0  0  0  0  0  0
  1  2  2  3
  1  3  1  0
  2  4  1  0
  4  5  2  0
  3  6  1  0
  3  7  2  0
  7  8  1  0
  8  9  2  0
  6 10  2  0
  9 10  1  0
  9 11  1  0
M  END
$$$$

     RDKit          3D

 11 12  0  0  0  0  0  0  0  0999 V2000
  140.3037  150.2154  139.4789 Cl  0  0  0  0  0  0  0  0  0  0  0  0
  138.6781  150.1864  140.5322 C   0  0  0  0  0  0  0  0  0  0  0  0
  137.6383  149.3835  140.0932 C   0  0  0  0  0  0  0  0  0  0  0  0
  139.0323  150.8827  141.6188 C   0  0  0  0  0  0  0  0  0  0  0  0
  138.0466  150.8334  142.6902 C   0  0  0  0  0  0  0  0  0  0  0  0
  136.8389  150.0632  142.4017 C   0  0  0  0  0  0  0  0  0  0  0  0
  135.7986  150.2251  143.4009 C   0  0  0  0  0  0  0  0  0  0  0  0
  136.2526  151.2188  144.4069 C   0  0  0  0  0  0  0  0  0  0  0  0
  136.5535  149.5593  141.1181 C   0  0  0  0  0  0  0  0  0  0  0  0
  138.2797  151.4175  143.9995 C   0  0  0  0  0  0  0  0  0  0  0  0
  137.3650  151.5136  144.8867 C   0  0  0  0  0  0  0  0  0  0  0  0
  1  2  1  0
  2  3  2  0
  2  4  1  0
  4  5  2  0
  5  6  1  0
  6  7  1  0
  7  8  1  0
  3  9  1  0
  6  9  2  0
  5 10  1  0
  8 11  2  0
 10 11  1  0
M  END
$$$$

     RDKit          3D

 11 12  0  0  0  0  0  0  0  0999 V2000
  139.3434  149.9921  140.5876 C   0  0  0  0  0  0  0  0  0  0  0  0
  138.9518  149.9236  139.3657 C   0  0  0  0  0  0  0  0  0  0  0  0
  138.6168  150.1115  141.6414 C   0  0  0  0  0  0  0  0  0  0  0  0
  137.1898  149.8671  141.8329 C   0  0  0  0  0  0  0  0  0  0  0  0
  136.5148  149.7637  140.5812 C   0  0  0  0  0  0  0  0  0  0  0  0
  139.1786  150.4016  143.1316 C   0  0  0  0  0  0  0  0  0  0  0  0
  138.3339  151.1454  143.8950 C   0  0  0  0  0  0  0  0  0  0  0  0
  136.9941  151.0549  143.8223 C   0  0  0  0  0  0  0  0  0  0  0  0
  136.3317  150.3439  142.8413 C   0  0  0  0  0  0  0  0  0  0  0  0
  137.3301  149.6360  139.3017 C   0  0  0  0  0  0  0  0  0  0  0  0
  136.2561  151.7184  144.8479 O   0  0  0  0  0  0  0  0  0  0  0  0
  1  2  2  0
  1  3  1  0
  3  4  1  0
  4  5  2  0
  3  6  1  0
  6  7  2  0
  7  8  1  0
  4  9  1  0
  8  9  1  0
  2 10  1  0
  5 10  1  0
  8 11  1  0
M  END
$$$$

     RDKit          3D

 12 12  0  0  0  0  0  0  0  0999 V2000
  140.3037  150.2154  139.4789 Cl  0  0  0  0  0  0  0  0  0  0  0  0
  138.6781  150.1864  140.5322 C   0  0  0  0  0  0  0  0  0  0  0  0
  137.6383  149.3835  140.0932 C   0  0  0  0  0  0  0  0  0  0  0  0
  138.8659  150.7191  141.4521 C   0  0  0  0  0  0  0  0  0  0  0  0
  137.5320  148.8060  138.7961 C   0  0  0  0  0  0  0  0  0  0  0  0
  136.5059  149.4850  140.9714 C   0  0  0  0  0  0  0  0  0  0  0  0
  137.8418  150.8348  142.5287 C   0  0  0  0  0  0  0  0  0  0  0  0
  138.0060  151.4939  143.7934 C   0  0  0  0  0  0  0  0  0  0  0  0
  135.2480  149.0779  140.5571 C   0  0  0  0  0  0  0  0  0  0  0  0
  136.8889  151.7687  144.5361 C   0  0  0  0  0  0  0  0  0  0  0  0
  136.8407  150.2576  141.9880 N   0  0  0  0  0  0  0  0  0  0  0  0
  137.0923  151.9470  145.9612 C   0  0  0  0  0  0  0  0  0  0  0  0
  1  2  1  0
  2  3  2  0
  2  4  1  0
  3  5  1  0
  3  6  1  0
  4  7  2  0
  7  8  1  0
  6  9  1  0
  8 10  2  3
  6 11  2  0
  7 11  1  0
 10 12  1  0
M  END
$$$$

     RDKit          3D

 12 13  0  0  0  0  0  0  0  0999 V2000
  139.3434  149.9921  140.5876 C   0  0  0  0  0  0  0  0  0  0  0  0
  138.9518  149.9236  139.3657 C   0  0  0  0  0  0  0  0  0  0  0  0
  138.6168  150.1115  141.6414 C   0  0  0  0  0  0  0  0  0  0  0  0
  137.1898  149.8671  141.8329 C   0  0  0  0  0  0  0  0  0  0  0  0
  136.5148  149.7637  140.5812 C   0  0  0  0  0  0  0  0  0  0  0  0
  139.1786  150.4016  143.1316 C   0  0  0  0  0  0  0  0  0  0  0  0
  138.3339  151.1454  143.8950 C   0  0  0  0  0  0  0  0  0  0  0  0
  136.9941  151.0549  143.8223 C   0  0  0  0  0  0  0  0  0  0  0  0
  136.3317  150.3439  142.8413 C   0  0  0  0  0  0  0  0  0  0  0  0
  136.1753  151.7170  145.0692 C   0  0  0  0  0  0  0  0  0  0  0  0
  137.4363  149.6487  139.2607 C   0  0  0  0  0  0  0  0  0  0  0  0
  134.9014  151.5448  145.1142 C   0  0  0  0  0  0  0  0  0  0  0  0
  1  2  2  0
  1  3  1  0
  3  4  1  0
  4  5  2  0
  3  6  1  0
  6  7  2  0
  7  8  1  0
  4  9  1  0
  8  9  2  0
  8 10  1  0
  2 11  1  0
  5 11  1  0
 10 12  2  0
M  END
$$$$

     RDKit          3D

 12 13  0  0  0  0  0  0  0  0999 V2000
  140.3037  150.2154  139.4789 Cl  0  0  0  0  0  0  0  0  0  0  0  0
  138.6781  150.1864  140.5322 C   0  0  0  0  0  0  0  0  0  0  0  0
  137.6383  149.3835  140.0932 C   0  0  0  0  0  0  0  0  0  0  0  0
  138.8659  150.7191  141.4521 C   0  0  0  0  0  0  0  0  0  0  0  0
  136.5657  149.5899  140.7699 C   0  0  0  0  0  0  0  0  0  0  0  0
  136.4133  150.3723  141.9098 C   0  0  0  0  0  0  0  0  0  0  0  0
  135.2492  150.5994  142.7383 C   0  0  0  0  0  0  0  0  0  0  0  0
  135.5657  151.2833  144.0142 C   0  0  0  0  0  0  0  0  0  0  0  0
  136.7189  152.0408  144.2242 C   0  0  0  0  0  0  0  0  0  0  0  0
  137.8088  151.7146  143.2938 C   0  0  0  0  0  0  0  0  0  0  0  0
  137.5722  150.9876  142.3578 C   0  0  0  0  0  0  0  0  0  0  0  0
  136.6734  153.0811  145.3369 C   0  0  0  0  0  0  0  0  0  0  0  0
  1  2  1  0
  2  3  2  0
  2  4  1  0
  3  5  1  0
  5  6  2  0
  6  7  1  0
  7  8  1  0
  8  9  2  0
  9 10  1  0
  4 11  1  0
  6 11  1  0
 10 11  2  0
  9 12  1  0
M  END
$$$$

     RDKit          3D

 12 13  0  0  0  0  0  0  0  0999 V2000
  140.3037  150.2154  139.4789 Cl  0  0  0  0  0  0  0  0  0  0  0  0
  138.6781  150.1864  140.5322 C   0  0  0  0  0  0  0  0  0  0  0  0
  137.6383  149.3835  140.0932 C   0  0  0  0  0  0  0  0  0  0  0  0
  138.7726  150.9278  141.6514 C   0  0  0  0  0  0  0  0  0  0  0  0
  137.6838  150.8829  142.5424 C   0  0  0  0  0  0  0  0  0  0  0  0
  137.6728  148.8765  138.7108 C   0  0  0  0  0  0  0  0  0  0  0  0
  137.8328  151.4161  143.9059 C   0  0  0  0  0  0  0  0  0  0  0  0
  136.7259  151.6711  144.7363 C   0  0  0  0  0  0  0  0  0  0  0  0
  135.5207  151.1553  144.1970 C   0  0  0  0  0  0  0  0  0  0  0  0
  136.4786  149.6017  140.7705 C   0  0  0  0  0  0  0  0  0  0  0  0
  136.4631  150.2460  142.0173 C   0  0  0  0  0  0  0  0  0  0  0  0
  135.2912  150.5828  142.9120 C   0  0  0  0  0  0  0  0  0  0  0  0
  1  2  1  0
  2  3  1  0
  2  4  2  0
  4  5  1  0
  3  6  1  0
  5  7  1  0
  7  8  2  0
  8  9  1  0
  3 10  2  0
  5 11  2  0
 10 11  1  0
  9 12  2  0
 11 12  1  0
M  END
$$$$

     RDKit          3D

 12 13  0  0  0  0  0  0  0  0999 V2000
  139.5547  150.5069  140.4449 C   0  0  0  0  0  0  0  0  0  0  0  0
  139.2163  150.0152  139.3729 C   0  0  0  0  0  0  0  0  0  0  0  0
  138.8578  150.3067  141.5860 C   0  0  0  0  0  0  0  0  0  0  0  0
  137.9790  149.2997  139.2383 C   0  0  0  0  0  0  0  0  0  0  0  0
  139.3342  150.9311  142.8842 C   0  0  0  0  0  0  0  0  0  0  0  0
  138.3151  151.4956  143.6096 C   0  0  0  0  0  0  0  0  0  0  0  0
  137.0061  151.1297  143.2686 C   0  0  0  0  0  0  0  0  0  0  0  0
  137.5336  148.7786  138.0874 C   0  0  0  0  0  0  0  0  0  0  0  0
  137.1574  149.5007  140.2338 C   0  0  0  0  0  0  0  0  0  0  0  0
  135.7222  149.1985  140.1106 C   0  0  0  0  0  0  0  0  0  0  0  0
  137.4780  150.0579  141.5579 C   0  0  0  0  0  0  0  0  0  0  0  0
  136.6160  150.4516  142.4881 C   0  0  0  0  0  0  0  0  0  0  0  0
  1  2  2  0
  1  3  1  0
  2  4  1  0
  3  5  1  0
  5  6  2  0
  6  7  1  0
  4  8  1  0
  4  9  2  0
  9 10  1  0
  3 11  2  0
  9 11  1  0
  7 12  2  0
 11 12  1  0
M  END
$$$$

     RDKit          3D

 12 13  0  0  0  0  0  0  0  0999 V2000
  140.3037  150.2154  139.4789 Cl  0  0  0  0  0  0  0  0  0  0  0  0
  138.6781  150.1864  140.5322 C   0  0  0  0  0  0  0  0  0  0  0  0
  137.6383  149.3835  140.0932 C   0  0  0  0  0  0  0  0  0  0  0  0
  139.0323  150.8827  141.6188 C   0  0  0  0  0  0  0  0  0  0  0  0
  136.4854  149.4748  141.0069 C   0  0  0  0  0  0  0  0  0  0  0  0
  136.6936  150.4331  141.9090 C   0  0  0  0  0  0  0  0  0  0  0  0
  135.4547  150.7046  142.8858 C   0  0  0  0  0  0  0  0  0  0  0  0
  135.9649  151.2433  144.1628 C   0  0  0  0  0  0  0  0  0  0  0  0
  137.9147  151.0240  142.4330 C   0  0  0  0  0  0  0  0  0  0  0  0
  138.0710  151.7161  143.7547 C   0  0  0  0  0  0  0  0  0  0  0  0
  134.7375  151.4543  145.1696 C   0  0  0  0  0  0  0  0  0  0  0  0
  137.0377  151.6853  144.5241 C   0  0  0  0  0  0  0  0  0  0  0  0
  1  2  1  0
  2  3  2  0
  2  4  1  0
  3  5  1  0
  5  6  2  0
  6  7  1  0
  7  8  2  0
  4  9  2  0
  6  9  1  0
  9 10  1  0
  8 11  1  0
  8 12  1  0
 10 12  2  0
M  END
$$$$

     RDKit          3D

 12 12  0  0  0  0  0  0  0  0999 V2000
  139.5547  150.5069  140.4449 C   0  0  0  0  0  0  0  0  0  0  0  0
  139.2163  150.0152  139.3729 C   0  0  0  0  0  0  0  0  0  0  0  0
  138.8578  150.3067  141.5860 C   0  0  0  0  0  0  0  0  0  0  0  0
  139.2256  150.3492  142.8903 C   0  0  0  0  0  0  0  0  0  0  0  0
  138.5566  151.2848  143.6742 C   0  0  0  0  0  0  0  0  0  0  0  0
  137.8562  149.4560  139.3195 C   0  0  0  0  0  0  0  0  0  0  0  0
  137.4734  151.5824  143.4210 C   0  0  0  0  0  0  0  0  0  0  0  0
  137.4375  150.1429  141.2506 C   0  0  0  0  0  0  0  0  0  0  0  0
  136.4212  151.9948  144.3706 C   0  0  0  0  0  0  0  0  0  0  0  0
  136.3520  152.3026  145.5523 C   0  0  0  0  0  0  0  0  0  0  0  0
  136.9361  149.6282  140.2351 C   0  0  0  0  0  0  0  0  0  0  0  0
  135.1924  152.7217  146.2655 C   0  0  0  0  0  0  0  0  0  0  0  0
  1  2  2  0
  1  3  1  0
  3  4  1  0
  4  5  2  3
  2  6  1  0
  5  7  1  0
  3  8  2  0
  7  9  2  3
  9 10  1  0
  6 11  2  0
  8 11  1  0
 10 12  1  0
M  END
$$$$

     RDKit          3D

 12 13  0  0  0  0  0  0  0  0999 V2000
  138.9995  149.7631  140.3651 C   0  0  0  0  0  0  0  0  0  0  0  0
  138.7139  149.5446  139.1245 C   0  0  0  0  0  0  0  0  0  0  0  0
  138.1832  150.1045  141.2841 C   0  0  0  0  0  0  0  0  0  0  0  0
  137.3206  149.5905  138.6810 C   0  0  0  0  0  0  0  0  0  0  0  0
  136.9836  149.1476  137.4587 O   0  0  0  0  0  0  0  0  0  0  0  0
  138.6053  150.6473  142.5904 C   0  0  0  0  0  0  0  0  0  0  0  0
  136.8415  150.3585  141.0404 C   0  0  0  0  0  0  0  0  0  0  0  0
  135.9113  150.6663  142.1137 C   0  0  0  0  0  0  0  0  0  0  0  0
  137.7603  150.8455  143.6527 C   0  0  0  0  0  0  0  0  0  0  0  0
  136.2976  149.8750  139.6419 C   0  0  0  0  0  0  0  0  0  0  0  0
  138.2668  151.1091  145.0391 C   0  0  0  0  0  0  0  0  0  0  0  0
  136.3905  150.9911  143.3746 C   0  0  0  0  0  0  0  0  0  0  0  0
  1  2  2  0
  1  3  1  0
  2  4  1  0
  4  5  1  0
  3  6  1  0
  3  7  2  0
  7  8  1  0
  6  9  2  0
  4 10  2  0
  7 10  1  0
  9 11  1  0
  8 12  2  0
  9 12  1  0
M  END
$$$$

     RDKit          3D

 12 13  0  0  0  0  0  0  0  0999 V2000
  140.3037  150.2154  139.4789 Cl  0  0  0  0  0  0  0  0  0  0  0  0
  138.6781  150.1864  140.5322 C   0  0  0  0  0  0  0  0  0  0  0  0
  137.6383  149.3835  140.0932 C   0  0  0  0  0  0  0  0  0  0  0  0
  136.4381  149.4572  140.8191 C   0  0  0  0  0  0  0  0  0  0  0  0
  139.1310  150.7531  141.5085 C   0  0  0  0  0  0  0  0  0  0  0  0
  138.1124  150.7972  142.6518 C   0  0  0  0  0  0  0  0  0  0  0  0
  136.8765  150.4821  142.6413 C   0  0  0  0  0  0  0  0  0  0  0  0
  138.4674  151.5134  144.0753 C   0  0  0  0  0  0  0  0  0  0  0  0
  136.1166  151.0225  143.8728 C   0  0  0  0  0  0  0  0  0  0  0  0
  137.3333  151.5694  144.8509 C   0  0  0  0  0  0  0  0  0  0  0  0
  136.0532  149.9710  141.6234 C   0  0  0  0  0  0  0  0  0  0  0  0
  136.9361  152.6489  145.4282 O   0  0  0  0  0  0  0  0  0  0  0  0
  1  2  1  0
  2  3  2  0
  3  4  1  0
  2  5  1  0
  5  6  2  0
  6  7  1  0
  6  8  1  0
  7  9  1  0
  8 10  1  0
  9 10  1  0
  4 11  1  0
  7 11  2  0
 10 12  1  0
M  END
$$$$

     RDKit          3D

 12 12  0  0  0  0  0  0  0  0999 V2000
  140.3037  150.2154  139.4789 Cl  0  0  0  0  0  0  0  0  0  0  0  0
  138.6781  150.1864  140.5322 C   0  0  0  0  0  0  0  0  0  0  0  0
  137.6383  149.3835  140.0932 C   0  0  0  0  0  0  0  0  0  0  0  0
  138.7726  150.9278  141.6514 C   0  0  0  0  0  0  0  0  0  0  0  0
  137.6838  150.8829  142.5424 C   0  0  0  0  0  0  0  0  0  0  0  0
  137.8361  151.5203  143.8923 C   0  0  0  0  0  0  0  0  0  0  0  0
  136.6904  151.6917  144.6959 C   0  0  0  0  0  0  0  0  0  0  0  0
  137.6537  148.8491  138.8355 C   0  0  0  0  0  0  0  0  0  0  0  0
  136.4363  149.4317  140.9050 C   0  0  0  0  0  0  0  0  0  0  0  0
  135.5450  150.9891  144.2873 C   0  0  0  0  0  0  0  0  0  0  0  0
  136.5744  150.2721  142.1290 C   0  0  0  0  0  0  0  0  0  0  0  0
  137.0619  152.3324  145.9322 C   0  0  0  0  0  0  0  0  0  0  0  0
  1  2  1  0
  2  3  1  0
  2  4  2  0
  4  5  1  0
  5  6  1  0
  6  7  2  3
  3  8  1  0
  3  9  2  0
  7 10  1  0
  5 11  2  0
  9 11  1  0
  7 12  1  0
M  END
$$$$

     RDKit          3D

 12 12  0  0  0  0  0  0  0  0999 V2000
  140.3037  150.2154  139.4789 Cl  0  0  0  0  0  0  0  0  0  0  0  0
  138.6781  150.1864  140.5322 C   0  0  0  0  0  0  0  0  0  0  0  0
  137.6383  149.3835  140.0932 C   0  0  0  0  0  0  0  0  0  0  0  0
  138.7493  150.9487  141.6722 C   0  0  0  0  0  0  0  0  0  0  0  0
  136.5607  149.6040  140.7945 C   0  0  0  0  0  0  0  0  0  0  0  0
  137.6808  151.0399  142.4906 C   0  0  0  0  0  0  0  0  0  0  0  0
  137.7181  151.7820  143.7359 C   0  0  0  0  0  0  0  0  0  0  0  0
  135.2425  149.1566  140.3839 C   0  0  0  0  0  0  0  0  0  0  0  0
  136.5864  151.7112  144.5637 C   0  0  0  0  0  0  0  0  0  0  0  0
  136.4153  150.5147  142.3070 C   0  0  0  0  0  0  0  0  0  0  0  0
  136.7152  152.5683  145.8338 C   0  0  0  0  0  0  0  0  0  0  0  0
  135.4598  153.2550  145.9499 C   0  0  0  0  0  0  0  0  0  0  0  0
  1  2  1  0
  2  3  2  0
  2  4  1  0
  3  5  1  0
  4  6  2  0
  6  7  1  0
  5  8  1  0
  7  9  2  3
  5 10  2  0
  6 10  1  0
  9 11  1  0
 11 12  1  0
M  END
$$$$

     RDKit          3D

 12 13  0  0  0  0  0  0  0  0999 V2000
  140.3037  150.2154  139.4789 Cl  0  0  0  0  0  0  0  0  0  0  0  0
  138.6781  150.1864  140.5322 C   0  0  0  0  0  0  0  0  0  0  0  0
  137.6383  149.3835  140.0932 C   0  0  0  0  0  0  0  0  0  0  0  0
  138.8659  150.7191  141.4521 C   0  0  0  0  0  0  0  0  0  0  0  0
  136.4770  149.4747  140.9574 C   0  0  0  0  0  0  0  0  0  0  0  0
  135.2970  148.9129  140.3578 C   0  0  0  0  0  0  0  0  0  0  0  0
  136.6537  150.3298  141.9841 C   0  0  0  0  0  0  0  0  0  0  0  0
  135.4964  150.4951  142.9729 C   0  0  0  0  0  0  0  0  0  0  0  0
  137.8474  150.9507  142.4197 C   0  0  0  0  0  0  0  0  0  0  0  0
  135.8529  151.0290  144.2924 C   0  0  0  0  0  0  0  0  0  0  0  0
  137.9106  151.6755  143.7076 C   0  0  0  0  0  0  0  0  0  0  0  0
  136.8070  151.5932  144.5647 C   0  0  0  0  0  0  0  0  0  0  0  0
  1  2  1  0
  2  3  2  0
  2  4  1  0
  3  5  1  0
  5  6  1  0
  5  7  2  0
  7  8  1  0
  4  9  2  0
  7  9  1  0
  8 10  2  0
  9 11  1  0
 10 12  1  0
 11 12  2  0
M  END
$$$$

     RDKit          3D

 12 13  0  0  0  0  0  0  0  0999 V2000
  139.5547  150.5069  140.4449 C   0  0  0  0  0  0  0  0  0  0  0  0
  139.2163  150.0152  139.3729 C   0  0  0  0  0  0  0  0  0  0  0  0
  138.8578  150.3067  141.5860 C   0  0  0  0  0  0  0  0  0  0  0  0
  137.9790  149.2997  139.2383 C   0  0  0  0  0  0  0  0  0  0  0  0
  139.3342  150.9311  142.8842 C   0  0  0  0  0  0  0  0  0  0  0  0
  138.3151  151.4956  143.6096 C   0  0  0  0  0  0  0  0  0  0  0  0
  137.0061  151.1297  143.2686 C   0  0  0  0  0  0  0  0  0  0  0  0
  137.5336  148.7786  138.0874 C   0  0  0  0  0  0  0  0  0  0  0  0
  137.1574  149.5007  140.2338 C   0  0  0  0  0  0  0  0  0  0  0  0
  135.7222  149.1985  140.1106 C   0  0  0  0  0  0  0  0  0  0  0  0
  137.4693  150.0555  141.5646 C   0  0  0  0  0  0  0  0  0  0  0  0
  136.6280  150.4151  142.4452 N   0  0  0  0  0  0  0  0  0  0  0  0
  1  2  2  0
  1  3  1  0
  2  4  1  0
  3  5  1  0
  5  6  2  0
  6  7  1  0
  4  8  1  0
  4  9  2  0
  9 10  1  0
  3 11  2  0
  9 11  1  0
  7 12  2  0
 11 12  1  0
M  END
$$$$

     RDKit          3D

 12 13  0  0  0  0  0  0  0  0999 V2000
  139.5547  150.5069  140.4449 C   0  0  0  0  0  0  0  0  0  0  0  0
  139.2163  150.0152  139.3729 C   0  0  0  0  0  0  0  0  0  0  0  0
  138.8578  150.3067  141.5860 C   0  0  0  0  0  0  0  0  0  0  0  0
  137.9790  149.2997  139.2383 C   0  0  0  0  0  0  0  0  0  0  0  0
  139.3342  150.9311  142.8842 C   0  0  0  0  0  0  0  0  0  0  0  0
  138.3151  151.4956  143.6096 C   0  0  0  0  0  0  0  0  0  0  0  0
  137.0061  151.1297  143.2686 C   0  0  0  0  0  0  0  0  0  0  0  0
  136.7486  150.4055  142.1315 C   0  0  0  0  0  0  0  0  0  0  0  0
  135.2482  150.1314  141.8630 C   0  0  0  0  0  0  0  0  0  0  0  0
  137.7503  150.0196  141.3290 C   0  0  0  0  0  0  0  0  0  0  0  0
  137.5968  148.7040  138.0368 C   0  0  0  0  0  0  0  0  0  0  0  0
  137.2327  149.4121  140.3672 N   0  0  0  0  0  0  0  0  0  0  0  0
  1  2  2  0
  1  3  1  0
  2  4  1  0
  3  5  1  0
  5  6  2  0
  6  7  1  0
  7  8  2  0
  8  9  1  0
  3 10  2  0
  8 10  1  0
  4 11  1  0
  4 12  2  0
 10 12  1  0
M  END
$$$$

     RDKit          3D

 12 13  0  0  0  0  0  0  0  0999 V2000
  139.3434  149.9921  140.5876 C   0  0  0  0  0  0  0  0  0  0  0  0
  138.9518  149.9236  139.3657 C   0  0  0  0  0  0  0  0  0  0  0  0
  138.6168  150.1115  141.6414 C   0  0  0  0  0  0  0  0  0  0  0  0
  137.1898  149.8671  141.8329 C   0  0  0  0  0  0  0  0  0  0  0  0
  136.5148  149.7637  140.5812 C   0  0  0  0  0  0  0  0  0  0  0  0
  139.1786  150.4016  143.1316 C   0  0  0  0  0  0  0  0  0  0  0  0
  138.3339  151.1454  143.8950 C   0  0  0  0  0  0  0  0  0  0  0  0
  137.2141  149.6946  139.2603 C   0  0  0  0  0  0  0  0  0  0  0  0
  137.0026  151.1648  143.8765 C   0  0  0  0  0  0  0  0  0  0  0  0
  136.2650  151.6610  144.9974 C   0  0  0  0  0  0  0  0  0  0  0  0
  135.0781  152.3418  144.8373 C   0  0  0  0  0  0  0  0  0  0  0  0
  136.5073  150.3628  142.8083 N   0  0  0  0  0  0  0  0  0  0  0  0
  1  2  2  0
  1  3  1  0
  3  4  1  0
  4  5  2  0
  3  6  1  0
  6  7  2  0
  2  8  1  0
  5  8  1  0
  7  9  1  0
  9 10  1  0
 10 11  1  0
  4 12  1  0
  9 12  2  0
M  END
$$$$

     RDKit          3D

 12 12  0  0  0  0  0  0  0  0999 V2000
  139.5547  150.5069  140.4449 C   0  0  0  0  0  0  0  0  0  0  0  0
  139.2163  150.0152  139.3729 C   0  0  0  0  0  0  0  0  0  0  0  0
  138.8578  150.3067  141.5860 C   0  0  0  0  0  0  0  0  0  0  0  0
  137.9790  149.2997  139.2383 C   0  0  0  0  0  0  0  0  0  0  0  0
  137.2015  149.2068  140.2792 C   0  0  0  0  0  0  0  0  0  0  0  0
  139.3290  150.8977  142.9151 C   0  0  0  0  0  0  0  0  0  0  0  0
  138.3157  151.4433  143.6698 C   0  0  0  0  0  0  0  0  0  0  0  0
  137.1821  151.2537  143.6221 C   0  0  0  0  0  0  0  0  0  0  0  0
  137.4748  149.8182  141.5431 C   0  0  0  0  0  0  0  0  0  0  0  0
  136.3114  151.8408  144.8341 C   0  0  0  0  0  0  0  0  0  0  0  0
  135.1591  151.3832  145.1297 C   0  0  0  0  0  0  0  0  0  0  0  0
  136.8004  152.9223  145.5503 C   0  0  0  0  0  0  0  0  0  0  0  0
  1  2  2  0
  1  3  1  0
  2  4  1  0
  4  5  2  0
  3  6  1  0
  6  7  2  3
  7  8  1  0
  3  9  2  0
  5  9  1  0
  8 10  1  0
 10 11  1  0
 10 12  2  0
M  END
$$$$

     RDKit          3D

 12 13  0  0  0  0  0  0  0  0999 V2000
  139.5547  150.5069  140.4449 C   0  0  0  0  0  0  0  0  0  0  0  0
  139.2163  150.0152  139.3729 C   0  0  0  0  0  0  0  0  0  0  0  0
  138.8578  150.3067  141.5860 C   0  0  0  0  0  0  0  0  0  0  0  0
  137.9790  149.2997  139.2383 C   0  0  0  0  0  0  0  0  0  0  0  0
  137.2015  149.2068  140.2792 C   0  0  0  0  0  0  0  0  0  0  0  0
  139.3290  150.8977  142.9151 C   0  0  0  0  0  0  0  0  0  0  0  0
  138.3157  151.4433  143.6698 C   0  0  0  0  0  0  0  0  0  0  0  0
  137.1821  151.2537  143.6221 C   0  0  0  0  0  0  0  0  0  0  0  0
  136.5997  150.5497  142.6574 C   0  0  0  0  0  0  0  0  0  0  0  0
  137.4081  150.0390  141.4938 C   0  0  0  0  0  0  0  0  0  0  0  0
  136.1536  151.8431  144.5634 C   0  0  0  0  0  0  0  0  0  0  0  0
  136.3197  153.0778  145.0968 C   0  0  0  0  0  0  0  0  0  0  0  0
  1  2  2  0
  1  3  1  0
  2  4  1  0
  4  5  2  0
  3  6  1  0
  6  7  2  0
  7  8  1  0
  8  9  2  0
  3 10  2  0
  5 10  1  0
  9 10  1  0
  8 11  1  0
 11 12  2  0
M  END
$$$$

     RDKit          3D

 12 12  0  0  0  0  0  0  0  0999 V2000
  140.3037  150.2154  139.4789 Cl  0  0  0  0  0  0  0  0  0  0  0  0
  138.6781  150.1864  140.5322 C   0  0  0  0  0  0  0  0  0  0  0  0
  137.6383  149.3835  140.0932 C   0  0  0  0  0  0  0  0  0  0  0  0
  139.0323  150.8827  141.6188 C   0  0  0  0  0  0  0  0  0  0  0  0
  138.0466  150.8334  142.6902 C   0  0  0  0  0  0  0  0  0  0  0  0
  136.8389  150.0632  142.4017 C   0  0  0  0  0  0  0  0  0  0  0  0
  137.3721  148.8666  138.9192 C   0  0  0  0  0  0  0  0  0  0  0  0
  135.8191  150.2593  143.4713 C   0  0  0  0  0  0  0  0  0  0  0  0
  136.5317  149.5941  141.1688 C   0  0  0  0  0  0  0  0  0  0  0  0
  135.4419  151.2781  144.0198 C   0  0  0  0  0  0  0  0  0  0  0  0
  134.7802  151.3425  145.3715 C   0  0  0  0  0  0  0  0  0  0  0  0
  134.3424  152.5831  145.8704 C   0  0  0  0  0  0  0  0  0  0  0  0
  1  2  1  0
  2  3  2  0
  2  4  1  0
  4  5  2  0
  5  6  1  0
  3  7  1  0
  6  8  1  0
  3  9  1  0
  6  9  2  0
  8 10  2  3
 10 11  1  0
 11 12  1  0
M  END
$$$$

     RDKit          3D

 12 13  0  0  0  0  0  0  0  0999 V2000
  140.3037  150.2154  139.4789 Cl  0  0  0  0  0  0  0  0  0  0  0  0
  138.6781  150.1864  140.5322 C   0  0  0  0  0  0  0  0  0  0  0  0
  137.6383  149.3835  140.0932 C   0  0  0  0  0  0  0  0  0  0  0  0
  139.0323  150.8827  141.6188 C   0  0  0  0  0  0  0  0  0  0  0  0
  138.0466  150.8334  142.6902 C   0  0  0  0  0  0  0  0  0  0  0  0
  136.8389  150.0632  142.4017 C   0  0  0  0  0  0  0  0  0  0  0  0
  137.3721  148.8666  138.9192 C   0  0  0  0  0  0  0  0  0  0  0  0
  135.8191  150.2593  143.4713 C   0  0  0  0  0  0  0  0  0  0  0  0
  136.4102  151.2471  144.4811 C   0  0  0  0  0  0  0  0  0  0  0  0
  136.5204  149.5772  141.0732 C   0  0  0  0  0  0  0  0  0  0  0  0
  138.2821  151.2859  143.9853 C   0  0  0  0  0  0  0  0  0  0  0  0
  137.4747  151.4677  144.9094 C   0  0  0  0  0  0  0  0  0  0  0  0
  1  2  1  0
  2  3  2  0
  2  4  1  0
  4  5  2  0
  5  6  1  0
  3  7  1  0
  6  8  1  0
  8  9  1  0
  3 10  1  0
  6 10  2  0
  5 11  1  0
  9 12  2  0
 11 12  1  0
M  END
$$$$

     RDKit          3D

 12 13  0  0  0  0  0  0  0  0999 V2000
  140.3037  150.2154  139.4789 Cl  0  0  0  0  0  0  0  0  0  0  0  0
  138.6781  150.1864  140.5322 C   0  0  0  0  0  0  0  0  0  0  0  0
  137.6383  149.3835  140.0932 C   0  0  0  0  0  0  0  0  0  0  0  0
  138.8659  150.7191  141.4521 C   0  0  0  0  0  0  0  0  0  0  0  0
  136.4770  149.4747  140.9574 C   0  0  0  0  0  0  0  0  0  0  0  0
  135.2970  148.9129  140.3578 C   0  0  0  0  0  0  0  0  0  0  0  0
  136.6537  150.3298  141.9841 C   0  0  0  0  0  0  0  0  0  0  0  0
  135.4964  150.4951  142.9729 C   0  0  0  0  0  0  0  0  0  0  0  0
  137.8474  150.9507  142.4197 C   0  0  0  0  0  0  0  0  0  0  0  0
  135.9211  151.2836  144.2354 C   0  0  0  0  0  0  0  0  0  0  0  0
  137.9870  151.6577  143.7649 C   0  0  0  0  0  0  0  0  0  0  0  0
  137.0105  151.7068  144.5872 C   0  0  0  0  0  0  0  0  0  0  0  0
  1  2  1  0
  2  3  2  0
  2  4  1  0
  3  5  1  0
  5  6  1  0
  5  7  2  0
  7  8  1  0
  4  9  2  0
  7  9  1  0
  8 10  1  0
  9 11  1  0
 10 12  2  0
 11 12  1  0
M  END
$$$$

     RDKit          3D

 12 12  0  0  0  0  0  0  0  0999 V2000
  140.3037  150.2154  139.4789 Cl  0  0  0  0  0  0  0  0  0  0  0  0
  138.6781  150.1864  140.5322 C   0  0  0  0  0  0  0  0  0  0  0  0
  137.6383  149.3835  140.0932 C   0  0  0  0  0  0  0  0  0  0  0  0
  138.7726  150.9278  141.6514 C   0  0  0  0  0  0  0  0  0  0  0  0
  138.1293  150.9128  142.4416 C   0  0  0  0  0  0  0  0  0  0  0  0
  138.2155  151.5104  143.8856 C   0  0  0  0  0  0  0  0  0  0  0  0
  136.8872  150.1827  142.6103 C   0  0  0  0  0  0  0  0  0  0  0  0
  137.6351  148.9096  138.8038 C   0  0  0  0  0  0  0  0  0  0  0  0
  136.2187  149.8252  141.3958 C   0  0  0  0  0  0  0  0  0  0  0  0
  137.2088  151.7819  144.7315 C   0  0  0  0  0  0  0  0  0  0  0  0
  136.4139  151.1229  145.2546 C   0  0  0  0  0  0  0  0  0  0  0  0
  136.4150  149.2464  140.3470 C   0  0  0  0  0  0  0  0  0  0  0  0
  1  2  1  0
  2  3  1  0
  2  4  2  0
  4  5  1  0
  5  6  1  0
  5  7  2  0
  3  8  1  0
  7  9  1  0
  6 10  1  0
 10 11  2  0
  3 12  2  0
  9 12  2  0
M  END
$$$$

     RDKit          3D

 12 13  0  0  0  0  0  0  0  0999 V2000
  140.3037  150.2154  139.4789 Cl  0  0  0  0  0  0  0  0  0  0  0  0
  138.6781  150.1864  140.5322 C   0  0  0  0  0  0  0  0  0  0  0  0
  137.6383  149.3835  140.0932 C   0  0  0  0  0  0  0  0  0  0  0  0
  139.0323  150.8827  141.6188 C   0  0  0  0  0  0  0  0  0  0  0  0
  136.4854  149.4748  141.0069 C   0  0  0  0  0  0  0  0  0  0  0  0
  136.6936  150.4331  141.9090 C   0  0  0  0  0  0  0  0  0  0  0  0
  135.4547  150.7046  142.8858 C   0  0  0  0  0  0  0  0  0  0  0  0
  135.9649  151.2433  144.1628 C   0  0  0  0  0  0  0  0  0  0  0  0
  137.9147  151.0240  142.4330 C   0  0  0  0  0  0  0  0  0  0  0  0
  135.0168  151.6003  145.1995 C   0  0  0  0  0  0  0  0  0  0  0  0
  137.9184  151.7310  143.7467 C   0  0  0  0  0  0  0  0  0  0  0  0
  137.0455  151.6681  144.4953 N   0  0  0  0  0  0  0  0  0  0  0  0
  1  2  1  0
  2  3  2  0
  2  4  1  0
  3  5  1  0
  5  6  2  0
  6  7  1  0
  7  8  2  0
  4  9  2  0
  6  9  1  0
  8 10  1  0
  9 11  1  0
  8 12  1  0
 11 12  2  0
M  END
$$$$

     RDKit          3D

 12 13  0  0  0  0  0  0  0  0999 V2000
  140.3037  150.2154  139.4789 Cl  0  0  0  0  0  0  0  0  0  0  0  0
  138.6781  150.1864  140.5322 C   0  0  0  0  0  0  0  0  0  0  0  0
  137.6383  149.3835  140.0932 C   0  0  0  0  0  0  0  0  0  0  0  0
  136.4381  149.4572  140.8191 C   0  0  0  0  0  0  0  0  0  0  0  0
  139.1310  150.7531  141.5085 C   0  0  0  0  0  0  0  0  0  0  0  0
  138.1124  150.7972  142.6518 C   0  0  0  0  0  0  0  0  0  0  0  0
  136.8765  150.4821  142.6413 C   0  0  0  0  0  0  0  0  0  0  0  0
  138.4674  151.5134  144.0753 C   0  0  0  0  0  0  0  0  0  0  0  0
  136.1166  151.0225  143.8728 C   0  0  0  0  0  0  0  0  0  0  0  0
  137.3333  151.5694  144.8509 C   0  0  0  0  0  0  0  0  0  0  0  0
  136.0201  149.9802  141.7081 C   0  0  0  0  0  0  0  0  0  0  0  0
  137.2378  150.9981  146.1085 C   0  0  0  0  0  0  0  0  0  0  0  0
  1  2  1  0
  2  3  2  0
  3  4  1  0
  2  5  1  0
  5  6  2  0
  6  7  1  0
  6  8  1  0
  7  9  1  0
  8 10  1  0
  9 10  1  0
  4 11  2  0
  7 11  2  0
 10 12  1  0
M  END
$$$$

     RDKit          3D

 12 12  0  0  0  0  0  0  0  0999 V2000
  140.3037  150.2154  139.4789 Cl  0  0  0  0  0  0  0  0  0  0  0  0
  138.6781  150.1864  140.5322 C   0  0  0  0  0  0  0  0  0  0  0  0
  137.6383  149.3835  140.0932 C   0  0  0  0  0  0  0  0  0  0  0  0
  136.4381  149.4572  140.8191 C   0  0  0  0  0  0  0  0  0  0  0  0
  138.9816  150.6968  141.6825 C   0  0  0  0  0  0  0  0  0  0  0  0
  138.2341  150.9034  142.4750 C   0  0  0  0  0  0  0  0  0  0  0  0
  136.4439  150.2812  142.0724 C   0  0  0  0  0  0  0  0  0  0  0  0
  137.0950  150.7955  142.8441 C   0  0  0  0  0  0  0  0  0  0  0  0
  136.3991  151.2262  144.2141 C   0  0  0  0  0  0  0  0  0  0  0  0
  135.1968  151.7978  144.2197 C   0  0  0  0  0  0  0  0  0  0  0  0
  134.8537  152.4368  145.5409 C   0  0  0  0  0  0  0  0  0  0  0  0
  135.8278  152.9034  146.2982 C   0  0  0  0  0  0  0  0  0  0  0  0
  1  2  1  0
  2  3  2  0
  3  4  1  0
  2  5  1  0
  5  6  2  0
  4  7  2  0
  6  8  1  0
  7  8  1  0
  8  9  1  0
  9 10  2  3
 10 11  1  0
 11 12  1  0
M  END
$$$$

     RDKit          3D

 12 13  0  0  0  0  0  0  0  0999 V2000
  138.9995  149.7631  140.3651 C   0  0  0  0  0  0  0  0  0  0  0  0
  138.7139  149.5446  139.1245 C   0  0  0  0  0  0  0  0  0  0  0  0
  138.1832  150.1045  141.2841 C   0  0  0  0  0  0  0  0  0  0  0  0
  137.3206  149.5905  138.6810 C   0  0  0  0  0  0  0  0  0  0  0  0
  136.9836  149.1476  137.4587 O   0  0  0  0  0  0  0  0  0  0  0  0
  138.6053  150.6473  142.5904 C   0  0  0  0  0  0  0  0  0  0  0  0
  136.8415  150.3585  141.0404 C   0  0  0  0  0  0  0  0  0  0  0  0
  135.9113  150.6663  142.1137 C   0  0  0  0  0  0  0  0  0  0  0  0
  137.7603  150.8455  143.6527 C   0  0  0  0  0  0  0  0  0  0  0  0
  136.2976  149.8750  139.6419 C   0  0  0  0  0  0  0  0  0  0  0  0
  134.5471  150.8653  141.8860 C   0  0  0  0  0  0  0  0  0  0  0  0
  136.5937  150.9043  143.3603 C   0  0  0  0  0  0  0  0  0  0  0  0
  1  2  2  0
  1  3  1  0
  2  4  1  0
  4  5  1  0
  3  6  1  0
  3  7  2  0
  7  8  1  0
  6  9  2  0
  4 10  2  0
  7 10  1  0
  8 11  1  0
  8 12  2  0
  9 12  1  0
M  END
$$$$

     RDKit          3D

 12 13  0  0  0  0  0  0  0  0999 V2000
  138.9995  149.7631  140.3651 C   0  0  0  0  0  0  0  0  0  0  0  0
  138.7139  149.5446  139.1245 C   0  0  0  0  0  0  0  0  0  0  0  0
  138.1832  150.1045  141.2841 C   0  0  0  0  0  0  0  0  0  0  0  0
  137.3206  149.5905  138.6810 C   0  0  0  0  0  0  0  0  0  0  0  0
  136.9836  149.1476  137.4587 O   0  0  0  0  0  0  0  0  0  0  0  0
  136.3407  149.8105  139.5100 C   0  0  0  0  0  0  0  0  0  0  0  0
  138.5810  150.4927  142.6498 C   0  0  0  0  0  0  0  0  0  0  0  0
  137.7126  150.9908  143.6113 C   0  0  0  0  0  0  0  0  0  0  0  0
  136.4436  151.0244  143.1644 C   0  0  0  0  0  0  0  0  0  0  0  0
  136.7589  150.2574  140.9538 C   0  0  0  0  0  0  0  0  0  0  0  0
  137.9986  151.4805  145.0306 C   0  0  0  0  0  0  0  0  0  0  0  0
  135.8155  150.6419  141.9572 C   0  0  0  0  0  0  0  0  0  0  0  0
  1  2  2  0
  1  3  1  0
  2  4  1  0
  4  5  2  0
  4  6  1  0
  3  7  1  0
  7  8  2  0
  8  9  1  0
  3 10  2  0
  6 10  1  0
  8 11  1  0
  9 12  2  0
 10 12  1  0
M  END
$$$$

     RDKit          3D

 12 13  0  0  0  0  0  0  0  0999 V2000
  139.5547  150.5069  140.4449 C   0  0  0  0  0  0  0  0  0  0  0  0
  139.2163  150.0152  139.3729 C   0  0  0  0  0  0  0  0  0  0  0  0
  138.8578  150.3067  141.5860 C   0  0  0  0  0  0  0  0  0  0  0  0
  137.9790  149.2997  139.2383 C   0  0  0  0  0  0  0  0  0  0  0  0
  137.2015  149.2068  140.2792 C   0  0  0  0  0  0  0  0  0  0  0  0
  139.3290  150.8977  142.9151 C   0  0  0  0  0  0  0  0  0  0  0  0
  135.7742  148.8078  140.2634 C   0  0  0  0  0  0  0  0  0  0  0  0
  138.3518  151.4838  143.6813 C   0  0  0  0  0  0  0  0  0  0  0  0
  137.1746  151.2983  143.5321 C   0  0  0  0  0  0  0  0  0  0  0  0
  137.6012  149.8643  141.4782 C   0  0  0  0  0  0  0  0  0  0  0  0
  136.6785  150.2927  142.6081 N   0  0  0  0  0  0  0  0  0  0  0  0
  136.3292  151.6601  144.6829 O   0  0  0  0  0  0  0  0  0  0  0  0
  1  2  2  0
  1  3  1  0
  2  4  1  0
  4  5  2  0
  3  6  1  0
  5  7  1  0
  6  8  2  0
  8  9  1  0
  3 10  2  0
  5 10  1  0
  9 11  1  0
 10 11  1  0
  9 12  2  0
M  END
$$$$

     RDKit          3D

 12 13  0  0  0  0  0  0  0  0999 V2000
  140.3037  150.2154  139.4789 Cl  0  0  0  0  0  0  0  0  0  0  0  0
  138.6781  150.1864  140.5322 C   0  0  0  0  0  0  0  0  0  0  0  0
  137.6383  149.3835  140.0932 C   0  0  0  0  0  0  0  0  0  0  0  0
  138.8659  150.7191  141.4521 C   0  0  0  0  0  0  0  0  0  0  0  0
  136.5657  149.5899  140.7699 C   0  0  0  0  0  0  0  0  0  0  0  0
  136.4133  150.3723  141.9098 C   0  0  0  0  0  0  0  0  0  0  0  0
  135.2492  150.5994  142.7383 C   0  0  0  0  0  0  0  0  0  0  0  0
  135.5657  151.2833  144.0142 C   0  0  0  0  0  0  0  0  0  0  0  0
  136.7189  152.0408  144.2242 C   0  0  0  0  0  0  0  0  0  0  0  0
  137.8088  151.7146  143.2938 C   0  0  0  0  0  0  0  0  0  0  0  0
  137.8605  151.0474  142.4195 C   0  0  0  0  0  0  0  0  0  0  0  0
  136.7993  152.8593  145.4200 C   0  0  0  0  0  0  0  0  0  0  0  0
  1  2  1  0
  2  3  2  0
  2  4  1  0
  3  5  1  0
  5  6  2  0
  6  7  1  0
  7  8  1  0
  8  9  2  0
  9 10  1  0
  4 11  2  0
  6 11  1  0
 10 11  1  0
  9 12  1  0
M  END
$$$$

     RDKit          3D

 12 13  0  0  0  0  0  0  0  0999 V2000
  140.3037  150.2154  139.4789 Cl  0  0  0  0  0  0  0  0  0  0  0  0
  138.6781  150.1864  140.5322 C   0  0  0  0  0  0  0  0  0  0  0  0
  137.6383  149.3835  140.0932 C   0  0  0  0  0  0  0  0  0  0  0  0
  139.0323  150.8827  141.6188 C   0  0  0  0  0  0  0  0  0  0  0  0
  138.0466  150.8334  142.6902 C   0  0  0  0  0  0  0  0  0  0  0  0
  136.8389  150.0632  142.4017 C   0  0  0  0  0  0  0  0  0  0  0  0
  135.7986  150.2251  143.4009 C   0  0  0  0  0  0  0  0  0  0  0  0
  136.2526  151.2188  144.4069 C   0  0  0  0  0  0  0  0  0  0  0  0
  135.5909  151.7267  145.5088 C   0  0  0  0  0  0  0  0  0  0  0  0
  136.4973  149.5324  141.1264 C   0  0  0  0  0  0  0  0  0  0  0  0
  138.1336  151.4216  144.0053 C   0  0  0  0  0  0  0  0  0  0  0  0
  134.8584  152.7047  145.4540 C   0  0  0  0  0  0  0  0  0  0  0  0
  1  2  1  0
  2  3  2  0
  2  4  1  0
  4  5  2  0
  5  6  1  0
  6  7  1  0
  7  8  1  0
  8  9  1  0
  3 10  1  0
  6 10  2  0
  5 11  1  0
  8 11  2  0
  9 12  1  0
M  END
$$$$

     RDKit          3D

 12 13  0  0  0  0  0  0  0  0999 V2000
  140.3037  150.2154  139.4789 Cl  0  0  0  0  0  0  0  0  0  0  0  0
  138.6781  150.1864  140.5322 C   0  0  0  0  0  0  0  0  0  0  0  0
  137.6383  149.3835  140.0932 C   0  0  0  0  0  0  0  0  0  0  0  0
  139.0323  150.8827  141.6188 C   0  0  0  0  0  0  0  0  0  0  0  0
  138.0466  150.8334  142.6902 C   0  0  0  0  0  0  0  0  0  0  0  0
  136.8389  150.0632  142.4017 C   0  0  0  0  0  0  0  0  0  0  0  0
  135.7986  150.2251  143.4009 C   0  0  0  0  0  0  0  0  0  0  0  0
  136.2526  151.2188  144.4069 C   0  0  0  0  0  0  0  0  0  0  0  0
  135.5909  151.7267  145.5088 C   0  0  0  0  0  0  0  0  0  0  0  0
  136.5075  149.5224  141.1414 C   0  0  0  0  0  0  0  0  0  0  0  0
  137.9540  151.3793  144.0153 C   0  0  0  0  0  0  0  0  0  0  0  0
  134.9239  152.7209  145.5139 C   0  0  0  0  0  0  0  0  0  0  0  0
  1  2  1  0
  2  3  2  0
  2  4  1  0
  4  5  2  0
  5  6  1  0
  6  7  1  0
  7  8  1  0
  8  9  1  0
  3 10  1  0
  6 10  2  0
  5 11  1  0
  8 11  2  0
  9 12  2  0
M  END
$$$$

     RDKit          3D

 12 13  0  0  0  0  0  0  0  0999 V2000
  140.3037  150.2154  139.4789 Cl  0  0  0  0  0  0  0  0  0  0  0  0
  138.6781  150.1864  140.5322 C   0  0  0  0  0  0  0  0  0  0  0  0
  137.6383  149.3835  140.0932 C   0  0  0  0  0  0  0  0  0  0  0  0
  139.0323  150.8827  141.6188 C   0  0  0  0  0  0  0  0  0  0  0  0
  138.0466  150.8334  142.6902 C   0  0  0  0  0  0  0  0  0  0  0  0
  136.8389  150.0632  142.4017 C   0  0  0  0  0  0  0  0  0  0  0  0
  135.7986  150.2251  143.4009 C   0  0  0  0  0  0  0  0  0  0  0  0
  136.2526  151.2188  144.4069 C   0  0  0  0  0  0  0  0  0  0  0  0
  135.5909  151.7267  145.5088 C   0  0  0  0  0  0  0  0  0  0  0  0
  137.4729  148.8864  138.9138 C   0  0  0  0  0  0  0  0  0  0  0  0
  137.6067  151.3507  144.0623 C   0  0  0  0  0  0  0  0  0  0  0  0
  136.5061  149.4775  141.1160 C   0  0  0  0  0  0  0  0  0  0  0  0
  1  2  1  0
  2  3  2  0
  2  4  1  0
  4  5  2  0
  5  6  1  0
  6  7  1  0
  7  8  1  0
  8  9  1  0
  3 10  1  0
  5 11  1  0
  8 11  2  0
  3 12  1  0
  6 12  2  0
M  END
$$$$

     RDKit          3D

 12 13  0  0  0  0  0  0  0  0999 V2000
  139.3434  149.9921  140.5876 C   0  0  0  0  0  0  0  0  0  0  0  0
  138.9518  149.9236  139.3657 C   0  0  0  0  0  0  0  0  0  0  0  0
  138.6168  150.1115  141.6414 C   0  0  0  0  0  0  0  0  0  0  0  0
  137.5735  149.8761  139.0597 C   0  0  0  0  0  0  0  0  0  0  0  0
  137.0914  149.5004  137.8161 O   0  0  0  0  0  0  0  0  0  0  0  0
  139.0590  150.5596  142.9738 C   0  0  0  0  0  0  0  0  0  0  0  0
  138.1364  151.1072  143.9767 C   0  0  0  0  0  0  0  0  0  0  0  0
  137.0458  151.2460  143.6025 C   0  0  0  0  0  0  0  0  0  0  0  0
  136.5091  150.9100  142.2928 C   0  0  0  0  0  0  0  0  0  0  0  0
  136.7935  149.7151  140.1400 C   0  0  0  0  0  0  0  0  0  0  0  0
  137.1566  150.2691  141.4675 C   0  0  0  0  0  0  0  0  0  0  0  0
  135.9251  151.9819  144.7887 C   0  0  0  0  0  0  0  0  0  0  0  0
  1  2  2  0
  1  3  1  0
  2  4  1  0
  4  5  1  0
  3  6  1  0
  6  7  2  0
  7  8  1  0
  8  9  2  0
  4 10  2  0
  3 11  2  0
  9 11  1  0
 10 11  1  0
  8 12  1  0
M  END
$$$$

     RDKit          3D

 12 13  0  0  0  0  0  0  0  0999 V2000
  140.3037  150.2154  139.4789 Cl  0  0  0  0  0  0  0  0  0  0  0  0
  138.6781  150.1864  140.5322 C   0  0  0  0  0  0  0  0  0  0  0  0
  137.6383  149.3835  140.0932 C   0  0  0  0  0  0  0  0  0  0  0  0
  136.4381  149.4572  140.8191 C   0  0  0  0  0  0  0  0  0  0  0  0
  139.1310  150.7531  141.5085 C   0  0  0  0  0  0  0  0  0  0  0  0
  138.1124  150.7972  142.6518 C   0  0  0  0  0  0  0  0  0  0  0  0
  136.8765  150.4821  142.6413 C   0  0  0  0  0  0  0  0  0  0  0  0
  138.4674  151.5134  144.0753 C   0  0  0  0  0  0  0  0  0  0  0  0
  136.1166  151.0225  143.8728 C   0  0  0  0  0  0  0  0  0  0  0  0
  137.3333  151.5694  144.8509 C   0  0  0  0  0  0  0  0  0  0  0  0
  136.0532  149.9710  141.6234 C   0  0  0  0  0  0  0  0  0  0  0  0
  136.9163  152.6243  145.4219 O   0  0  0  0  0  0  0  0  0  0  0  0
  1  2  1  0
  2  3  2  0
  3  4  1  0
  2  5  1  0
  5  6  2  0
  6  7  1  0
  6  8  1  0
  7  9  1  0
  8 10  1  0
  9 10  1  0
  4 11  2  0
  7 11  2  0
 10 12  1  0
M  END
$$$$

     RDKit          3D

 12 13  0  0  0  0  0  0  0  0999 V2000
  139.5547  150.5069  140.4449 C   0  0  0  0  0  0  0  0  0  0  0  0
  139.2163  150.0152  139.3729 C   0  0  0  0  0  0  0  0  0  0  0  0
  138.8578  150.3067  141.5860 C   0  0  0  0  0  0  0  0  0  0  0  0
  137.9790  149.2997  139.2383 C   0  0  0  0  0  0  0  0  0  0  0  0
  139.3342  150.9311  142.8842 C   0  0  0  0  0  0  0  0  0  0  0  0
  138.3151  151.4956  143.6096 C   0  0  0  0  0  0  0  0  0  0  0  0
  137.0061  151.1297  143.2686 C   0  0  0  0  0  0  0  0  0  0  0  0
  137.0856  149.5087  140.1488 C   0  0  0  0  0  0  0  0  0  0  0  0
  135.6479  149.2461  140.0543 C   0  0  0  0  0  0  0  0  0  0  0  0
  136.7825  150.4176  142.0861 C   0  0  0  0  0  0  0  0  0  0  0  0
  135.4529  150.2615  141.6964 C   0  0  0  0  0  0  0  0  0  0  0  0
  137.6917  150.0860  141.2780 C   0  0  0  0  0  0  0  0  0  0  0  0
  1  2  2  0
  1  3  1  0
  2  4  1  0
  3  5  1  0
  5  6  2  0
  6  7  1  0
  4  8  2  0
  8  9  1  0
  7 10  2  0
 10 11  1  0
  3 12  1  0
  8 12  1  0
 10 12  1  0
M  END
$$$$

     RDKit          3D

 12 13  0  0  0  0  0  0  0  0999 V2000
  139.5547  150.5069  140.4449 C   0  0  0  0  0  0  0  0  0  0  0  0
  139.2163  150.0152  139.3729 C   0  0  0  0  0  0  0  0  0  0  0  0
  138.8578  150.3067  141.5860 C   0  0  0  0  0  0  0  0  0  0  0  0
  137.9790  149.2997  139.2383 C   0  0  0  0  0  0  0  0  0  0  0  0
  139.3342  150.9311  142.8842 C   0  0  0  0  0  0  0  0  0  0  0  0
  138.3151  151.4956  143.6096 C   0  0  0  0  0  0  0  0  0  0  0  0
  137.0061  151.1297  143.2686 C   0  0  0  0  0  0  0  0  0  0  0  0
  137.0856  149.5087  140.1488 C   0  0  0  0  0  0  0  0  0  0  0  0
  135.6479  149.2461  140.0543 C   0  0  0  0  0  0  0  0  0  0  0  0
  136.7825  150.4176  142.0861 C   0  0  0  0  0  0  0  0  0  0  0  0
  135.4529  150.2615  141.6964 C   0  0  0  0  0  0  0  0  0  0  0  0
  137.5146  150.1171  141.3499 C   0  0  0  0  0  0  0  0  0  0  0  0
  1  2  2  0
  1  3  1  0
  2  4  1  0
  3  5  1  0
  5  6  2  0
  6  7  1  0
  4  8  2  0
  8  9  1  0
  7 10  2  0
 10 11  1  0
  3 12  2  0
  8 12  1  0
 10 12  1  0
M  END
$$$$

     RDKit          3D

 12 13  0  0  0  0  0  0  0  0999 V2000
  140.3037  150.2154  139.4789 Cl  0  0  0  0  0  0  0  0  0  0  0  0
  138.6781  150.1864  140.5322 C   0  0  0  0  0  0  0  0  0  0  0  0
  137.6383  149.3835  140.0932 C   0  0  0  0  0  0  0  0  0  0  0  0
  139.0323  150.8827  141.6188 C   0  0  0  0  0  0  0  0  0  0  0  0
  138.0466  150.8334  142.6902 C   0  0  0  0  0  0  0  0  0  0  0  0
  136.8389  150.0632  142.4017 C   0  0  0  0  0  0  0  0  0  0  0  0
  137.3721  148.8666  138.9192 C   0  0  0  0  0  0  0  0  0  0  0  0
  135.8191  150.2593  143.4713 C   0  0  0  0  0  0  0  0  0  0  0  0
  136.4102  151.2471  144.4811 C   0  0  0  0  0  0  0  0  0  0  0  0
  136.5204  149.5772  141.0732 C   0  0  0  0  0  0  0  0  0  0  0  0
  138.2731  151.4118  143.9907 C   0  0  0  0  0  0  0  0  0  0  0  0
  136.0483  152.4004  144.7415 O   0  0  0  0  0  0  0  0  0  0  0  0
  1  2  1  0
  2  3  2  0
  2  4  1  0
  4  5  2  0
  5  6  1  0
  3  7  1  0
  6  8  1  0
  8  9  1  0
  3 10  1  0
  6 10  2  0
  5 11  1  0
  9 11  1  0
  9 12  1  0
M  END
$$$$

     RDKit          3D

 12 13  0  0  0  0  0  0  0  0999 V2000
  140.3037  150.2154  139.4789 Cl  0  0  0  0  0  0  0  0  0  0  0  0
  138.6781  150.1864  140.5322 C   0  0  0  0  0  0  0  0  0  0  0  0
  137.6383  149.3835  140.0932 C   0  0  0  0  0  0  0  0  0  0  0  0
  138.8659  150.7191  141.4521 C   0  0  0  0  0  0  0  0  0  0  0  0
  138.3205  150.9402  142.2995 C   0  0  0  0  0  0  0  0  0  0  0  0
  136.6328  149.6178  140.7913 C   0  0  0  0  0  0  0  0  0  0  0  0
  135.2653  149.2034  140.3255 C   0  0  0  0  0  0  0  0  0  0  0  0
  138.5419  151.6237  143.7074 C   0  0  0  0  0  0  0  0  0  0  0  0
  137.5352  151.8074  144.6103 C   0  0  0  0  0  0  0  0  0  0  0  0
  136.3031  151.2976  144.3014 C   0  0  0  0  0  0  0  0  0  0  0  0
  136.7784  150.4552  142.0625 C   0  0  0  0  0  0  0  0  0  0  0  0
  135.9621  150.7233  143.0872 N   0  0  0  0  0  0  0  0  0  0  0  0
  1  2  1  0
  2  3  2  0
  2  4  1  0
  4  5  2  0
  3  6  1  0
  6  7  1  0
  5  8  1  0
  8  9  2  0
  9 10  1  0
  5 11  1  0
  6 11  2  0
 10 12  2  0
 11 12  1  0
M  END
$$$$

     RDKit          3D

 12 13  0  0  0  0  0  0  0  0999 V2000
  140.3037  150.2154  139.4789 Cl  0  0  0  0  0  0  0  0  0  0  0  0
  138.6781  150.1864  140.5322 C   0  0  0  0  0  0  0  0  0  0  0  0
  137.6383  149.3835  140.0932 C   0  0  0  0  0  0  0  0  0  0  0  0
  139.2398  150.7167  141.5765 C   0  0  0  0  0  0  0  0  0  0  0  0
  138.2210  150.6933  142.6926 C   0  0  0  0  0  0  0  0  0  0  0  0
  138.5246  151.2961  144.0072 C   0  0  0  0  0  0  0  0  0  0  0  0
  137.5101  151.9933  144.4824 C   0  0  0  0  0  0  0  0  0  0  0  0
  136.4881  151.8084  144.2255 C   0  0  0  0  0  0  0  0  0  0  0  0
  136.0392  151.0836  143.2176 C   0  0  0  0  0  0  0  0  0  0  0  0
  136.4830  149.6734  140.9080 C   0  0  0  0  0  0  0  0  0  0  0  0
  136.5972  150.4577  142.2773 C   0  0  0  0  0  0  0  0  0  0  0  0
  134.9275  152.5360  145.1799 Cl  0  0  0  0  0  0  0  0  0  0  0  0
  1  2  1  0
  2  3  1  0
  2  4  2  0
  4  5  1  0
  5  6  1  0
  6  7  2  0
  7  8  1  0
  8  9  2  0
  3 10  2  0
  5 11  2  0
  9 11  1  0
 10 11  1  0
  8 12  1  0
M  END
$$$$

     RDKit          3D

 12 13  0  0  0  0  0  0  0  0999 V2000
  140.3037  150.2154  139.4789 Cl  0  0  0  0  0  0  0  0  0  0  0  0
  138.6781  150.1864  140.5322 C   0  0  0  0  0  0  0  0  0  0  0  0
  137.6383  149.3835  140.0932 C   0  0  0  0  0  0  0  0  0  0  0  0
  138.8659  150.7191  141.4521 C   0  0  0  0  0  0  0  0  0  0  0  0
  136.4770  149.4747  140.9574 C   0  0  0  0  0  0  0  0  0  0  0  0
  138.0381  150.9313  142.3784 C   0  0  0  0  0  0  0  0  0  0  0  0
  138.2044  151.6697  143.6804 C   0  0  0  0  0  0  0  0  0  0  0  0
  137.2146  151.8778  144.5544 C   0  0  0  0  0  0  0  0  0  0  0  0
  136.6685  150.3000  142.1258 C   0  0  0  0  0  0  0  0  0  0  0  0
  136.0046  151.3612  144.4594 C   0  0  0  0  0  0  0  0  0  0  0  0
  135.5892  150.6027  143.0906 N   0  0  0  0  0  0  0  0  0  0  0  0
  134.9546  151.3002  145.2267 O   0  0  0  0  0  0  0  0  0  0  0  0
  1  2  1  0
  2  3  2  0
  2  4  1  0
  3  5  1  0
  4  6  2  0
  6  7  1  0
  7  8  2  0
  5  9  2  0
  6  9  1  0
  8 10  1  0
  9 11  1  0
 10 11  1  0
 10 12  2  0
M  END
$$$$

     RDKit          3D

 12 13  0  0  0  0  0  0  0  0999 V2000
  139.3434  149.9921  140.5876 C   0  0  0  0  0  0  0  0  0  0  0  0
  138.9518  149.9236  139.3657 C   0  0  0  0  0  0  0  0  0  0  0  0
  138.6168  150.1115  141.6414 C   0  0  0  0  0  0  0  0  0  0  0  0
  137.1898  149.8671  141.8329 C   0  0  0  0  0  0  0  0  0  0  0  0
  136.5148  149.7637  140.5812 C   0  0  0  0  0  0  0  0  0  0  0  0
  139.1786  150.4016  143.1316 C   0  0  0  0  0  0  0  0  0  0  0  0
  138.3339  151.1454  143.8950 C   0  0  0  0  0  0  0  0  0  0  0  0
  136.9941  151.0549  143.8223 C   0  0  0  0  0  0  0  0  0  0  0  0
  136.3317  150.3439  142.8413 C   0  0  0  0  0  0  0  0  0  0  0  0
  139.7579  149.9603  138.2100 C   0  0  0  0  0  0  0  0  0  0  0  0
  137.1969  149.5766  139.2774 C   0  0  0  0  0  0  0  0  0  0  0  0
  136.5011  151.6286  144.9989 O   0  0  0  0  0  0  0  0  0  0  0  0
  1  2  2  0
  1  3  1  0
  3  4  1  0
  4  5  2  0
  3  6  1  0
  6  7  2  0
  7  8  1  0
  4  9  1  0
  8  9  1  0
  2 10  1  0
  2 11  1  0
  5 11  1  0
  8 12  1  0
M  END
$$$$

     RDKit          3D

 12 12  0  0  0  0  0  0  0  0999 V2000
  139.5547  150.5069  140.4449 C   0  0  0  0  0  0  0  0  0  0  0  0
  139.2163  150.0152  139.3729 C   0  0  0  0  0  0  0  0  0  0  0  0
  138.8578  150.3067  141.5860 C   0  0  0  0  0  0  0  0  0  0  0  0
  139.2256  150.3492  142.8903 C   0  0  0  0  0  0  0  0  0  0  0  0
  138.5566  151.2848  143.6742 C   0  0  0  0  0  0  0  0  0  0  0  0
  137.8562  149.4560  139.3195 C   0  0  0  0  0  0  0  0  0  0  0  0
  137.4734  151.5824  143.4210 C   0  0  0  0  0  0  0  0  0  0  0  0
  137.4375  150.1429  141.2506 C   0  0  0  0  0  0  0  0  0  0  0  0
  136.4212  151.9948  144.3706 C   0  0  0  0  0  0  0  0  0  0  0  0
  137.4418  148.8889  138.0470 C   0  0  0  0  0  0  0  0  0  0  0  0
  136.6344  150.1817  140.2777 C   0  0  0  0  0  0  0  0  0  0  0  0
  135.6449  151.0247  145.0111 C   0  0  0  0  0  0  0  0  0  0  0  0
  1  2  2  0
  1  3  1  0
  3  4  1  0
  4  5  2  3
  2  6  1  0
  5  7  1  0
  3  8  2  0
  7  9  1  0
  6 10  1  0
  6 11  2  0
  8 11  1  0
  9 12  1  0
M  END
$$$$

     RDKit          3D

 12 13  0  0  0  0  0  0  0  0999 V2000
  138.9995  149.7631  140.3651 C   0  0  0  0  0  0  0  0  0  0  0  0
  138.7139  149.5446  139.1245 C   0  0  0  0  0  0  0  0  0  0  0  0
  138.1832  150.1045  141.2841 C   0  0  0  0  0  0  0  0  0  0  0  0
  137.3206  149.5905  138.6810 C   0  0  0  0  0  0  0  0  0  0  0  0
  136.9836  149.1476  137.4587 O   0  0  0  0  0  0  0  0  0  0  0  0
  138.6053  150.6473  142.5904 C   0  0  0  0  0  0  0  0  0  0  0  0
  136.8415  150.3585  141.0404 C   0  0  0  0  0  0  0  0  0  0  0  0
  135.9113  150.6663  142.1137 C   0  0  0  0  0  0  0  0  0  0  0  0
  136.3384  149.9012  139.7731 C   0  0  0  0  0  0  0  0  0  0  0  0
  136.6704  151.0040  143.1448 C   0  0  0  0  0  0  0  0  0  0  0  0
  140.1092  150.5623  142.8792 C   0  0  0  0  0  0  0  0  0  0  0  0
  137.7247  150.9923  143.5942 C   0  0  0  0  0  0  0  0  0  0  0  0
  1  2  2  0
  1  3  1  0
  2  4  1  0
  4  5  1  0
  3  6  1  0
  3  7  2  0
  7  8  1  0
  4  9  2  0
  7  9  1  0
  8 10  2  0
  6 11  1  0
  6 12  2  0
 10 12  1  0
M  END
$$$$

     RDKit          3D

 12 12  0  0  0  0  0  0  0  0999 V2000
  140.3037  150.2154  139.4789 Cl  0  0  0  0  0  0  0  0  0  0  0  0
  138.6781  150.1864  140.5322 C   0  0  0  0  0  0  0  0  0  0  0  0
  137.6383  149.3835  140.0932 C   0  0  0  0  0  0  0  0  0  0  0  0
  138.8659  150.7191  141.4521 C   0  0  0  0  0  0  0  0  0  0  0  0
  136.5657  149.5899  140.7699 C   0  0  0  0  0  0  0  0  0  0  0  0
  136.4133  150.3723  141.9098 C   0  0  0  0  0  0  0  0  0  0  0  0
  135.2492  150.5994  142.7383 C   0  0  0  0  0  0  0  0  0  0  0  0
  137.6667  151.0066  142.3888 C   0  0  0  0  0  0  0  0  0  0  0  0
  135.4605  150.7137  144.1050 C   0  0  0  0  0  0  0  0  0  0  0  0
  134.4686  151.3673  144.9467 C   0  0  0  0  0  0  0  0  0  0  0  0
  134.9491  152.2847  145.8516 C   0  0  0  0  0  0  0  0  0  0  0  0
  136.3495  152.4196  146.1630 C   0  0  0  0  0  0  0  0  0  0  0  0
  1  2  1  0
  2  3  2  0
  2  4  1  0
  3  5  1  0
  5  6  2  0
  6  7  1  0
  4  8  2  0
  6  8  1  0
  7  9  2  3
  9 10  1  0
 10 11  2  3
 11 12  1  0
M  END
$$$$

     RDKit          3D

 12 12  0  0  0  0  0  0  0  0999 V2000
  139.5547  150.5069  140.4449 C   0  0  0  0  0  0  0  0  0  0  0  0
  139.2163  150.0152  139.3729 C   0  0  0  0  0  0  0  0  0  0  0  0
  138.8578  150.3067  141.5860 C   0  0  0  0  0  0  0  0  0  0  0  0
  139.2256  150.3492  142.8903 C   0  0  0  0  0  0  0  0  0  0  0  0
  138.3524  151.0108  143.9708 C   0  0  0  0  0  0  0  0  0  0  0  0
  137.3975  151.4215  143.6155 C   0  0  0  0  0  0  0  0  0  0  0  0
  140.0603  149.8221  138.1670 C   0  0  0  0  0  0  0  0  0  0  0  0
  136.6871  151.4097  142.5647 C   0  0  0  0  0  0  0  0  0  0  0  0
  137.3716  150.7089  141.4313 C   0  0  0  0  0  0  0  0  0  0  0  0
  136.5120  152.1445  144.7903 C   0  0  0  0  0  0  0  0  0  0  0  0
  135.4156  151.4820  145.3040 C   0  0  0  0  0  0  0  0  0  0  0  0
  136.7366  153.4009  145.2923 C   0  0  0  0  0  0  0  0  0  0  0  0
  1  2  2  3
  1  3  1  0
  3  4  1  0
  4  5  2  0
  5  6  1  0
  2  7  1  0
  6  8  2  0
  3  9  2  0
  8  9  1  0
  6 10  1  0
 10 11  1  0
 10 12  2  0
M  END
$$$$

     RDKit          3D

 12 13  0  0  0  0  0  0  0  0999 V2000
  140.3037  150.2154  139.4789 Cl  0  0  0  0  0  0  0  0  0  0  0  0
  138.6781  150.1864  140.5322 C   0  0  0  0  0  0  0  0  0  0  0  0
  137.6383  149.3835  140.0932 C   0  0  0  0  0  0  0  0  0  0  0  0
  139.0323  150.8827  141.6188 C   0  0  0  0  0  0  0  0  0  0  0  0
  138.0466  150.8334  142.6902 C   0  0  0  0  0  0  0  0  0  0  0  0
  136.8389  150.0632  142.4017 C   0  0  0  0  0  0  0  0  0  0  0  0
  135.7986  150.2251  143.4009 C   0  0  0  0  0  0  0  0  0  0  0  0
  136.2526  151.2188  144.4069 C   0  0  0  0  0  0  0  0  0  0  0  0
  135.5909  151.7267  145.5088 C   0  0  0  0  0  0  0  0  0  0  0  0
  138.4214  151.3877  143.8448 C   0  0  0  0  0  0  0  0  0  0  0  0
  136.5715  149.5038  141.1199 C   0  0  0  0  0  0  0  0  0  0  0  0
  137.5718  151.4865  144.6768 C   0  0  0  0  0  0  0  0  0  0  0  0
  1  2  1  0
  2  3  2  0
  2  4  1  0
  4  5  2  0
  5  6  1  0
  6  7  1  0
  7  8  1  0
  8  9  1  0
  5 10  1  0
  3 11  1  0
  6 11  2  0
  8 12  2  0
 10 12  1  0
M  END
$$$$

     RDKit          3D

 12 13  0  0  0  0  0  0  0  0999 V2000
  140.3037  150.2154  139.4789 Cl  0  0  0  0  0  0  0  0  0  0  0  0
  138.6781  150.1864  140.5322 C   0  0  0  0  0  0  0  0  0  0  0  0
  137.6383  149.3835  140.0932 C   0  0  0  0  0  0  0  0  0  0  0  0
  139.0323  150.8827  141.6188 C   0  0  0  0  0  0  0  0  0  0  0  0
  136.4854  149.4748  141.0069 C   0  0  0  0  0  0  0  0  0  0  0  0
  136.6936  150.4331  141.9090 C   0  0  0  0  0  0  0  0  0  0  0  0
  135.4547  150.7046  142.8858 C   0  0  0  0  0  0  0  0  0  0  0  0
  138.0289  151.0266  142.4136 C   0  0  0  0  0  0  0  0  0  0  0  0
  135.7018  150.8689  144.2252 C   0  0  0  0  0  0  0  0  0  0  0  0
  136.9024  150.8376  144.7990 C   0  0  0  0  0  0  0  0  0  0  0  0
  138.1206  151.6267  143.7997 C   0  0  0  0  0  0  0  0  0  0  0  0
  134.8923  151.6806  144.6651 O   0  0  0  0  0  0  0  0  0  0  0  0
  1  2  1  0
  2  3  2  0
  2  4  1  0
  3  5  1  0
  5  6  2  0
  6  7  1  0
  4  8  2  0
  6  8  1  0
  7  9  1  0
  9 10  1  0
  8 11  1  0
 10 11  1  0
  9 12  1  0
M  END
$$$$

     RDKit          3D

 12 12  0  0  0  0  0  0  0  0999 V2000
  139.5547  150.5069  140.4449 C   0  0  0  0  0  0  0  0  0  0  0  0
  139.2163  150.0152  139.3729 C   0  0  0  0  0  0  0  0  0  0  0  0
  138.8578  150.3067  141.5860 C   0  0  0  0  0  0  0  0  0  0  0  0
  139.2256  150.3492  142.8903 C   0  0  0  0  0  0  0  0  0  0  0  0
  138.5566  151.2848  143.6742 C   0  0  0  0  0  0  0  0  0  0  0  0
  137.8562  149.4560  139.3195 C   0  0  0  0  0  0  0  0  0  0  0  0
  137.4734  151.5824  143.4210 C   0  0  0  0  0  0  0  0  0  0  0  0
  137.4375  150.1429  141.2506 C   0  0  0  0  0  0  0  0  0  0  0  0
  137.4451  148.9003  138.0605 C   0  0  0  0  0  0  0  0  0  0  0  0
  136.6476  150.2196  140.2658 C   0  0  0  0  0  0  0  0  0  0  0  0
  136.5721  152.3224  144.3828 C   0  0  0  0  0  0  0  0  0  0  0  0
  136.9420  153.3648  145.2915 C   0  0  0  0  0  0  0  0  0  0  0  0
  1  2  2  0
  1  3  1  0
  3  4  1  0
  4  5  2  3
  2  6  1  0
  5  7  1  0
  3  8  2  0
  6  9  1  0
  6 10  2  0
  8 10  1  0
  7 11  2  3
 11 12  1  0
M  END
$$$$

     RDKit          3D

 12 13  0  0  0  0  0  0  0  0999 V2000
  140.3037  150.2154  139.4789 Cl  0  0  0  0  0  0  0  0  0  0  0  0
  138.6781  150.1864  140.5322 C   0  0  0  0  0  0  0  0  0  0  0  0
  137.6383  149.3835  140.0932 C   0  0  0  0  0  0  0  0  0  0  0  0
  139.0323  150.8827  141.6188 C   0  0  0  0  0  0  0  0  0  0  0  0
  138.0466  150.8334  142.6902 C   0  0  0  0  0  0  0  0  0  0  0  0
  136.8389  150.0632  142.4017 C   0  0  0  0  0  0  0  0  0  0  0  0
  137.3721  148.8666  138.9192 C   0  0  0  0  0  0  0  0  0  0  0  0
  135.8191  150.2593  143.4713 C   0  0  0  0  0  0  0  0  0  0  0  0
  136.4102  151.2471  144.4811 C   0  0  0  0  0  0  0  0  0  0  0  0
  136.5204  149.5772  141.0732 C   0  0  0  0  0  0  0  0  0  0  0  0
  138.2821  151.2859  143.9853 C   0  0  0  0  0  0  0  0  0  0  0  0
  137.4904  151.5071  144.9367 C   0  0  0  0  0  0  0  0  0  0  0  0
  1  2  1  0
  2  3  2  0
  2  4  1  0
  4  5  2  0
  5  6  1  0
  3  7  1  0
  6  8  1  0
  8  9  1  0
  3 10  1  0
  6 10  2  0
  5 11  1  0
  9 12  1  0
 11 12  2  0
M  END
$$$$

     RDKit          3D

 12 13  0  0  0  0  0  0  0  0999 V2000
  140.3037  150.2154  139.4789 Cl  0  0  0  0  0  0  0  0  0  0  0  0
  138.6781  150.1864  140.5322 C   0  0  0  0  0  0  0  0  0  0  0  0
  137.6383  149.3835  140.0932 C   0  0  0  0  0  0  0  0  0  0  0  0
  136.4381  149.4572  140.8191 C   0  0  0  0  0  0  0  0  0  0  0  0
  139.1310  150.7531  141.5085 C   0  0  0  0  0  0  0  0  0  0  0  0
  138.1124  150.7972  142.6518 C   0  0  0  0  0  0  0  0  0  0  0  0
  136.8765  150.4821  142.6413 C   0  0  0  0  0  0  0  0  0  0  0  0
  138.4674  151.5134  144.0753 C   0  0  0  0  0  0  0  0  0  0  0  0
  136.1166  151.0225  143.8728 C   0  0  0  0  0  0  0  0  0  0  0  0
  135.9973  149.9837  141.8347 C   0  0  0  0  0  0  0  0  0  0  0  0
  137.4239  151.5963  144.8669 C   0  0  0  0  0  0  0  0  0  0  0  0
  137.2593  151.0242  146.1253 C   0  0  0  0  0  0  0  0  0  0  0  0
  1  2  1  0
  2  3  2  0
  3  4  1  0
  2  5  1  0
  5  6  2  0
  6  7  1  0
  6  8  1  0
  7  9  1  0
  4 10  1  0
  7 10  2  0
  8 11  1  0
  9 11  1  0
 11 12  1  0
M  END
$$$$

     RDKit          3D

 12 13  0  0  0  0  0  0  0  0999 V2000
  140.3037  150.2154  139.4789 Cl  0  0  0  0  0  0  0  0  0  0  0  0
  138.6781  150.1864  140.5322 C   0  0  0  0  0  0  0  0  0  0  0  0
  137.6383  149.3835  140.0932 C   0  0  0  0  0  0  0  0  0  0  0  0
  136.4381  149.4572  140.8191 C   0  0  0  0  0  0  0  0  0  0  0  0
  139.1310  150.7531  141.5085 C   0  0  0  0  0  0  0  0  0  0  0  0
  138.1124  150.7972  142.6518 C   0  0  0  0  0  0  0  0  0  0  0  0
  136.8765  150.4821  142.6413 C   0  0  0  0  0  0  0  0  0  0  0  0
  138.4674  151.5134  144.0753 C   0  0  0  0  0  0  0  0  0  0  0  0
  137.4174  151.9366  144.7466 C   0  0  0  0  0  0  0  0  0  0  0  0
  135.3512  149.0156  139.7679 C   0  0  0  0  0  0  0  0  0  0  0  0
  135.9747  150.0430  141.7481 C   0  0  0  0  0  0  0  0  0  0  0  0
  136.2286  150.9207  143.9731 C   0  0  0  0  0  0  0  0  0  0  0  0
  1  2  1  0
  2  3  2  0
  3  4  1  0
  2  5  1  0
  5  6  2  0
  6  7  1  0
  6  8  1  0
  8  9  1  0
  4 10  1  0
  4 11  2  0
  7 11  1  0
  7 12  1  0
  9 12  1  0
M  END
$$$$

     RDKit          3D

 12 12  0  0  0  0  0  0  0  0999 V2000
  140.3037  150.2154  139.4789 Cl  0  0  0  0  0  0  0  0  0  0  0  0
  138.6781  150.1864  140.5322 C   0  0  0  0  0  0  0  0  0  0  0  0
  137.6383  149.3835  140.0932 C   0  0  0  0  0  0  0  0  0  0  0  0
  138.7493  150.9487  141.6722 C   0  0  0  0  0  0  0  0  0  0  0  0
  136.5607  149.6040  140.7945 C   0  0  0  0  0  0  0  0  0  0  0  0
  137.6808  151.0399  142.4906 C   0  0  0  0  0  0  0  0  0  0  0  0
  137.7181  151.7820  143.7359 C   0  0  0  0  0  0  0  0  0  0  0  0
  135.2425  149.1566  140.3839 C   0  0  0  0  0  0  0  0  0  0  0  0
  136.4628  150.4360  142.0283 C   0  0  0  0  0  0  0  0  0  0  0  0
  136.6566  151.5808  144.6561 C   0  0  0  0  0  0  0  0  0  0  0  0
  136.3848  150.5353  145.1910 C   0  0  0  0  0  0  0  0  0  0  0  0
  135.8810  152.7037  145.1789 C   0  0  0  0  0  0  0  0  0  0  0  0
  1  2  1  0
  2  3  2  0
  2  4  1  0
  3  5  1  0
  4  6  2  0
  6  7  1  0
  5  8  1  0
  5  9  2  0
  6  9  1  0
  7 10  1  0
 10 11  2  0
 10 12  1  0
M  END
$$$$

     RDKit          3D

 12 12  0  0  0  0  0  0  0  0999 V2000
  140.3037  150.2154  139.4789 Cl  0  0  0  0  0  0  0  0  0  0  0  0
  138.6781  150.1864  140.5322 C   0  0  0  0  0  0  0  0  0  0  0  0
  137.6383  149.3835  140.0932 C   0  0  0  0  0  0  0  0  0  0  0  0
  139.0323  150.8827  141.6188 C   0  0  0  0  0  0  0  0  0  0  0  0
  136.4854  149.4748  141.0069 C   0  0  0  0  0  0  0  0  0  0  0  0
  136.6936  150.4331  141.9090 C   0  0  0  0  0  0  0  0  0  0  0  0
  135.4547  150.7046  142.8858 C   0  0  0  0  0  0  0  0  0  0  0  0
  138.0289  151.0266  142.4136 C   0  0  0  0  0  0  0  0  0  0  0  0
  135.9457  151.4973  144.0838 C   0  0  0  0  0  0  0  0  0  0  0  0
  137.0430  151.5758  144.5182 O   0  0  0  0  0  0  0  0  0  0  0  0
  134.8798  152.2645  144.7352 O   0  0  0  0  0  0  0  0  0  0  0  0
  135.2772  152.6586  146.0763 C   0  0  0  0  0  0  0  0  0  0  0  0
  1  2  1  0
  2  3  2  0
  2  4  1  0
  3  5  1  0
  5  6  2  0
  6  7  1  0
  4  8  2  0
  6  8  1  0
  7  9  1  0
  9 10  2  0
  9 11  1  0
 11 12  1  0
M  END
$$$$

     RDKit          3D

 12 13  0  0  0  0  0  0  0  0999 V2000
  140.3037  150.2154  139.4789 Cl  0  0  0  0  0  0  0  0  0  0  0  0
  138.6781  150.1864  140.5322 C   0  0  0  0  0  0  0  0  0  0  0  0
  137.6383  149.3835  140.0932 C   0  0  0  0  0  0  0  0  0  0  0  0
  138.8659  150.7191  141.4521 C   0  0  0  0  0  0  0  0  0  0  0  0
  136.5657  149.5899  140.7699 C   0  0  0  0  0  0  0  0  0  0  0  0
  136.4133  150.3723  141.9098 C   0  0  0  0  0  0  0  0  0  0  0  0
  135.2492  150.5994  142.7383 C   0  0  0  0  0  0  0  0  0  0  0  0
  135.5657  151.2833  144.0142 C   0  0  0  0  0  0  0  0  0  0  0  0
  137.7156  150.9755  142.4209 C   0  0  0  0  0  0  0  0  0  0  0  0
  136.8710  151.5772  144.3258 C   0  0  0  0  0  0  0  0  0  0  0  0
  137.9464  151.5134  143.6403 C   0  0  0  0  0  0  0  0  0  0  0  0
  136.9513  152.2854  145.7626 C   0  0  0  0  0  0  0  0  0  0  0  0
  1  2  1  0
  2  3  2  0
  2  4  1  0
  3  5  1  0
  5  6  2  0
  6  7  1  0
  7  8  2  0
  4  9  2  0
  6  9  1  0
  8 10  1  0
  9 11  1  0
 10 11  2  0
 10 12  1  0
M  END
$$$$

     RDKit          3D

 12 13  0  0  0  0  0  0  0  0999 V2000
  140.3037  150.2154  139.4789 Cl  0  0  0  0  0  0  0  0  0  0  0  0
  138.6781  150.1864  140.5322 C   0  0  0  0  0  0  0  0  0  0  0  0
  137.6383  149.3835  140.0932 C   0  0  0  0  0  0  0  0  0  0  0  0
  136.4381  149.4572  140.8191 C   0  0  0  0  0  0  0  0  0  0  0  0
  139.1310  150.7531  141.5085 C   0  0  0  0  0  0  0  0  0  0  0  0
  138.1124  150.7972  142.6518 C   0  0  0  0  0  0  0  0  0  0  0  0
  136.8765  150.4821  142.6413 C   0  0  0  0  0  0  0  0  0  0  0  0
  138.4674  151.5134  144.0753 C   0  0  0  0  0  0  0  0  0  0  0  0
  136.0588  150.0130  141.8424 C   0  0  0  0  0  0  0  0  0  0  0  0
  136.1580  150.6894  143.8419 C   0  0  0  0  0  0  0  0  0  0  0  0
  136.8669  151.2730  144.9787 C   0  0  0  0  0  0  0  0  0  0  0  0
  137.8167  151.6316  145.0084 C   0  0  0  0  0  0  0  0  0  0  0  0
  1  2  1  0
  2  3  2  0
  3  4  1  0
  2  5  1  0
  5  6  2  0
  6  7  1  0
  6  8  1  0
  4  9  1  0
  7  9  1  0
  7 10  2  0
 10 11  1  0
  8 12  2  0
 11 12  2  0
M  END
$$$$

     RDKit          3D

 12 12  0  0  0  0  0  0  0  0999 V2000
  140.3037  150.2154  139.4789 Cl  0  0  0  0  0  0  0  0  0  0  0  0
  138.6781  150.1864  140.5322 C   0  0  0  0  0  0  0  0  0  0  0  0
  137.6383  149.3835  140.0932 C   0  0  0  0  0  0  0  0  0  0  0  0
  139.0323  150.8827  141.6188 C   0  0  0  0  0  0  0  0  0  0  0  0
  138.0466  150.8334  142.6902 C   0  0  0  0  0  0  0  0  0  0  0  0
  136.8389  150.0632  142.4017 C   0  0  0  0  0  0  0  0  0  0  0  0
  135.7986  150.2251  143.4009 C   0  0  0  0  0  0  0  0  0  0  0  0
  135.8422  150.6650  144.4566 C   0  0  0  0  0  0  0  0  0  0  0  0
  136.5246  149.5268  141.1019 C   0  0  0  0  0  0  0  0  0  0  0  0
  134.9300  150.9060  145.4800 C   0  0  0  0  0  0  0  0  0  0  0  0
  134.1278  150.3671  146.0612 O   0  0  0  0  0  0  0  0  0  0  0  0
  135.4283  152.2553  146.0515 C   0  0  0  0  0  0  0  0  0  0  0  0
  1  2  1  0
  2  3  2  0
  2  4  1  0
  4  5  2  0
  5  6  1  0
  6  7  1  0
  7  8  2  3
  3  9  1  0
  6  9  2  0
  8 10  1  0
 10 11  2  0
 10 12  1  0
M  END
$$$$

     RDKit          3D

 12 12  0  0  0  0  0  0  0  0999 V2000
  140.3037  150.2154  139.4789 Cl  0  0  0  0  0  0  0  0  0  0  0  0
  138.6781  150.1864  140.5322 C   0  0  0  0  0  0  0  0  0  0  0  0
  137.6383  149.3835  140.0932 C   0  0  0  0  0  0  0  0  0  0  0  0
  138.7726  150.9278  141.6514 C   0  0  0  0  0  0  0  0  0  0  0  0
  137.6838  150.8829  142.5424 C   0  0  0  0  0  0  0  0  0  0  0  0
  137.8361  151.5203  143.8923 C   0  0  0  0  0  0  0  0  0  0  0  0
  136.6904  151.6917  144.6959 C   0  0  0  0  0  0  0  0  0  0  0  0
  137.6537  148.8491  138.8355 C   0  0  0  0  0  0  0  0  0  0  0  0
  136.4363  149.4317  140.9050 C   0  0  0  0  0  0  0  0  0  0  0  0
  135.2817  148.8881  140.4506 C   0  0  0  0  0  0  0  0  0  0  0  0
  136.4694  150.1538  142.1343 C   0  0  0  0  0  0  0  0  0  0  0  0
  135.4891  151.3794  144.4047 C   0  0  0  0  0  0  0  0  0  0  0  0
  1  2  1  0
  2  3  1  0
  2  4  2  0
  4  5  1  0
  5  6  1  0
  6  7  2  3
  3  8  1  0
  3  9  2  0
  9 10  1  0
  5 11  2  0
  9 11  1  0
  7 12  1  0
M  END
$$$$

     RDKit          3D

 12 13  0  0  0  0  0  0  0  0999 V2000
  140.3037  150.2154  139.4789 Cl  0  0  0  0  0  0  0  0  0  0  0  0
  138.6781  150.1864  140.5322 C   0  0  0  0  0  0  0  0  0  0  0  0
  137.6383  149.3835  140.0932 C   0  0  0  0  0  0  0  0  0  0  0  0
  136.4381  149.4572  140.8191 C   0  0  0  0  0  0  0  0  0  0  0  0
  139.1310  150.7531  141.5085 C   0  0  0  0  0  0  0  0  0  0  0  0
  138.1124  150.7972  142.6518 C   0  0  0  0  0  0  0  0  0  0  0  0
  136.8765  150.4821  142.6413 C   0  0  0  0  0  0  0  0  0  0  0  0
  138.4674  151.5134  144.0753 C   0  0  0  0  0  0  0  0  0  0  0  0
  136.0588  150.0130  141.8424 C   0  0  0  0  0  0  0  0  0  0  0  0
  136.1580  150.6894  143.8419 C   0  0  0  0  0  0  0  0  0  0  0  0
  136.8669  151.2730  144.9787 C   0  0  0  0  0  0  0  0  0  0  0  0
  138.0282  151.5322  145.0450 C   0  0  0  0  0  0  0  0  0  0  0  0
  1  2  1  0
  2  3  2  0
  3  4  1  0
  2  5  1  0
  5  6  2  0
  6  7  1  0
  6  8  1  0
  4  9  1  0
  7  9  1  0
  7 10  2  0
 10 11  1  0
  8 12  1  0
 11 12  2  0
M  END
$$$$

     RDKit          3D

 12 12  0  0  0  0  0  0  0  0999 V2000
  139.3434  149.9921  140.5876 C   0  0  0  0  0  0  0  0  0  0  0  0
  138.9518  149.9236  139.3657 C   0  0  0  0  0  0  0  0  0  0  0  0
  138.6168  150.1115  141.6414 C   0  0  0  0  0  0  0  0  0  0  0  0
  137.5735  149.8761  139.0597 C   0  0  0  0  0  0  0  0  0  0  0  0
  137.0914  149.5004  137.8161 O   0  0  0  0  0  0  0  0  0  0  0  0
  139.0590  150.5596  142.9738 C   0  0  0  0  0  0  0  0  0  0  0  0
  138.1364  151.1072  143.9767 C   0  0  0  0  0  0  0  0  0  0  0  0
  136.7209  149.8949  140.1652 C   0  0  0  0  0  0  0  0  0  0  0  0
  137.0150  151.3003  143.6749 C   0  0  0  0  0  0  0  0  0  0  0  0
  136.1148  151.9408  144.6661 C   0  0  0  0  0  0  0  0  0  0  0  0
  137.1871  150.2514  141.4841 C   0  0  0  0  0  0  0  0  0  0  0  0
  136.1844  153.2949  145.0026 C   0  0  0  0  0  0  0  0  0  0  0  0
  1  2  2  0
  1  3  1  0
  2  4  1  0
  4  5  1  0
  3  6  1  0
  6  7  2  3
  4  8  2  0
  7  9  1  0
  9 10  1  0
  3 11  2  0
  8 11  1  0
 10 12  1  0
M  END
$$$$

     RDKit          3D

 12 13  0  0  0  0  0  0  0  0999 V2000
  140.3037  150.2154  139.4789 Cl  0  0  0  0  0  0  0  0  0  0  0  0
  138.6781  150.1864  140.5322 C   0  0  0  0  0  0  0  0  0  0  0  0
  137.6383  149.3835  140.0932 C   0  0  0  0  0  0  0  0  0  0  0  0
  138.7493  150.9487  141.6722 C   0  0  0  0  0  0  0  0  0  0  0  0
  136.4550  149.4185  140.9231 C   0  0  0  0  0  0  0  0  0  0  0  0
  136.4020  150.2882  142.0360 C   0  0  0  0  0  0  0  0  0  0  0  0
  135.2029  150.3942  142.8879 C   0  0  0  0  0  0  0  0  0  0  0  0
  135.6292  151.1000  144.1630 C   0  0  0  0  0  0  0  0  0  0  0  0
  137.5864  150.9728  142.5063 C   0  0  0  0  0  0  0  0  0  0  0  0
  137.4996  151.6337  143.8113 S   0  0  0  0  0  0  0  0  0  0  0  0
  136.2449  151.6217  144.5791 C   0  0  0  0  0  0  0  0  0  0  0  0
  134.9376  151.7346  145.1219 C   0  0  0  0  0  0  0  0  0  0  0  0
  1  2  1  0
  2  3  2  0
  2  4  1  0
  3  5  1  0
  5  6  2  0
  6  7  1  0
  7  8  2  0
  4  9  2  0
  6  9  1  0
  9 10  1  0
 10 11  1  0
  8 12  1  0
 11 12  3  0
M  END
$$$$

     RDKit          3D

 12 13  0  0  0  0  0  0  0  0999 V2000
  138.7095  151.1467  142.6277 C   0  0  0  0  0  0  0  0  0  0  0  0
  138.5278  151.9381  143.5113 C   0  0  0  0  0  0  0  0  0  0  0  0
  137.3924  151.8109  144.0738 C   0  0  0  0  0  0  0  0  0  0  0  0
  136.5960  150.6215  143.9730 C   0  0  0  0  0  0  0  0  0  0  0  0
  137.9801  149.9621  142.2574 C   0  0  0  0  0  0  0  0  0  0  0  0
  136.5091  152.7523  145.0869 C   0  0  0  0  0  0  0  0  0  0  0  0
  135.4522  152.3080  145.6984 C   0  0  0  0  0  0  0  0  0  0  0  0
  135.4658  150.4744  144.8133 C   0  0  0  0  0  0  0  0  0  0  0  0
  136.9370  149.6959  142.9559 C   0  0  0  0  0  0  0  0  0  0  0  0
  134.8929  151.1771  145.6599 C   0  0  0  0  0  0  0  0  0  0  0  0
  140.0491  151.3443  141.7590 C   0  0  0  0  0  0  0  0  0  0  0  0
  140.1106  150.6251  140.4983 C   0  0  0  0  0  0  0  0  0  0  0  0
  1  2  1  0
  2  3  2  0
  3  4  1  0
  1  5  2  0
  3  6  1  0
  6  7  1  0
  4  8  1  0
  4  9  2  0
  5  9  1  0
  7 10  2  0
  8 10  2  0
  1 11  1  0
 11 12  1  0
M  END
$$$$

     RDKit          3D

 12 12  0  0  0  0  0  0  0  0999 V2000
  140.3037  150.2154  139.4789 Cl  0  0  0  0  0  0  0  0  0  0  0  0
  138.6781  150.1864  140.5322 C   0  0  0  0  0  0  0  0  0  0  0  0
  137.6383  149.3835  140.0932 C   0  0  0  0  0  0  0  0  0  0  0  0
  138.8659  150.7191  141.4521 C   0  0  0  0  0  0  0  0  0  0  0  0
  137.8205  150.8021  142.5167 C   0  0  0  0  0  0  0  0  0  0  0  0
  138.0507  151.4552  143.8205 C   0  0  0  0  0  0  0  0  0  0  0  0
  136.7024  150.0764  142.0189 C   0  0  0  0  0  0  0  0  0  0  0  0
  139.1586  151.7912  144.2108 C   0  0  0  0  0  0  0  0  0  0  0  0
  136.8692  151.5211  144.4852 C   0  0  0  0  0  0  0  0  0  0  0  0
  136.4600  149.5531  140.9192 C   0  0  0  0  0  0  0  0  0  0  0  0
  135.6391  151.2440  144.2022 C   0  0  0  0  0  0  0  0  0  0  0  0
  134.4752  151.5899  144.9876 C   0  0  0  0  0  0  0  0  0  0  0  0
  1  2  1  0
  2  3  2  0
  2  4  1  0
  4  5  2  0
  5  6  1  0
  5  7  1  0
  6  8  2  0
  6  9  1  0
  3 10  1  0
  7 10  2  0
  9 11  2  3
 11 12  1  0
M  END
$$$$

     RDKit          3D

 12 13  0  0  0  0  0  0  0  0999 V2000
  139.3434  149.9921  140.5876 C   0  0  0  0  0  0  0  0  0  0  0  0
  138.9518  149.9236  139.3657 C   0  0  0  0  0  0  0  0  0  0  0  0
  138.6168  150.1115  141.6414 C   0  0  0  0  0  0  0  0  0  0  0  0
  137.1898  149.8671  141.8329 C   0  0  0  0  0  0  0  0  0  0  0  0
  136.5148  149.7637  140.5812 C   0  0  0  0  0  0  0  0  0  0  0  0
  139.1786  150.4016  143.1316 C   0  0  0  0  0  0  0  0  0  0  0  0
  138.3339  151.1454  143.8950 C   0  0  0  0  0  0  0  0  0  0  0  0
  136.9941  151.0549  143.8223 C   0  0  0  0  0  0  0  0  0  0  0  0
  136.3317  150.3439  142.8413 C   0  0  0  0  0  0  0  0  0  0  0  0
  139.7579  149.9603  138.2100 C   0  0  0  0  0  0  0  0  0  0  0  0
  137.1969  149.5766  139.2774 C   0  0  0  0  0  0  0  0  0  0  0  0
  136.5011  151.6286  144.9989 O   0  0  0  0  0  0  0  0  0  0  0  0
  1  2  2  0
  1  3  1  0
  3  4  1  0
  4  5  2  0
  3  6  1  0
  6  7  2  0
  7  8  1  0
  4  9  1  0
  8  9  1  0
  2 10  1  0
  2 11  1  0
  5 11  1  0
  8 12  2  0
M  END
$$$$

     RDKit          3D

 12 12  0  0  0  0  0  0  0  0999 V2000
  140.3037  150.2154  139.4789 Cl  0  0  0  0  0  0  0  0  0  0  0  0
  138.6781  150.1864  140.5322 C   0  0  0  0  0  0  0  0  0  0  0  0
  137.6383  149.3835  140.0932 C   0  0  0  0  0  0  0  0  0  0  0  0
  136.4381  149.4572  140.8191 C   0  0  0  0  0  0  0  0  0  0  0  0
  138.8130  150.8921  141.7043 C   0  0  0  0  0  0  0  0  0  0  0  0
  135.2492  148.9579  140.1871 C   0  0  0  0  0  0  0  0  0  0  0  0
  136.6091  150.4171  141.7375 C   0  0  0  0  0  0  0  0  0  0  0  0
  137.6591  151.0081  142.3297 C   0  0  0  0  0  0  0  0  0  0  0  0
  137.5878  151.8487  143.5806 C   0  0  0  0  0  0  0  0  0  0  0  0
  136.5163  151.6208  144.4584 C   0  0  0  0  0  0  0  0  0  0  0  0
  136.1353  152.7416  145.3601 C   0  0  0  0  0  0  0  0  0  0  0  0
  135.0746  152.6167  146.2914 C   0  0  0  0  0  0  0  0  0  0  0  0
  1  2  1  0
  2  3  2  0
  3  4  1  0
  2  5  1  0
  4  6  1  0
  4  7  2  0
  5  8  2  0
  7  8  1  0
  8  9  1  0
  9 10  1  0
 10 11  1  0
 11 12  1  0
M  END
$$$$

     RDKit          3D

 12 12  0  0  0  0  0  0  0  0999 V2000
  140.3037  150.2154  139.4789 Cl  0  0  0  0  0  0  0  0  0  0  0  0
  138.6781  150.1864  140.5322 C   0  0  0  0  0  0  0  0  0  0  0  0
  137.6383  149.3835  140.0932 C   0  0  0  0  0  0  0  0  0  0  0  0
  138.7493  150.9487  141.6722 C   0  0  0  0  0  0  0  0  0  0  0  0
  136.5607  149.6040  140.7945 C   0  0  0  0  0  0  0  0  0  0  0  0
  137.6808  151.0399  142.4906 C   0  0  0  0  0  0  0  0  0  0  0  0
  137.7181  151.7820  143.7359 C   0  0  0  0  0  0  0  0  0  0  0  0
  135.2425  149.1566  140.3839 C   0  0  0  0  0  0  0  0  0  0  0  0
  136.5864  151.7112  144.5637 C   0  0  0  0  0  0  0  0  0  0  0  0
  136.4409  150.3855  141.9635 C   0  0  0  0  0  0  0  0  0  0  0  0
  135.5070  151.0413  144.3947 C   0  0  0  0  0  0  0  0  0  0  0  0
  136.9067  152.5950  145.7690 C   0  0  0  0  0  0  0  0  0  0  0  0
  1  2  1  0
  2  3  2  0
  2  4  1  0
  3  5  1  0
  4  6  2  0
  6  7  1  0
  5  8  1  0
  7  9  2  3
  5 10  2  0
  6 10  1  0
  9 11  1  0
  9 12  1  0
M  END
$$$$

     RDKit          3D

 12 13  0  0  0  0  0  0  0  0999 V2000
  140.3037  150.2154  139.4789 Cl  0  0  0  0  0  0  0  0  0  0  0  0
  138.6781  150.1864  140.5322 C   0  0  0  0  0  0  0  0  0  0  0  0
  137.6383  149.3835  140.0932 C   0  0  0  0  0  0  0  0  0  0  0  0
  136.4381  149.4572  140.8191 C   0  0  0  0  0  0  0  0  0  0  0  0
  139.1310  150.7531  141.5085 C   0  0  0  0  0  0  0  0  0  0  0  0
  138.1124  150.7972  142.6518 C   0  0  0  0  0  0  0  0  0  0  0  0
  136.8765  150.4821  142.6413 C   0  0  0  0  0  0  0  0  0  0  0  0
  138.4674  151.5134  144.0753 C   0  0  0  0  0  0  0  0  0  0  0  0
  137.4174  151.9366  144.7466 C   0  0  0  0  0  0  0  0  0  0  0  0
  136.1039  150.0460  141.8346 C   0  0  0  0  0  0  0  0  0  0  0  0
  136.1939  150.7691  143.9056 C   0  0  0  0  0  0  0  0  0  0  0  0
  136.5187  151.5328  145.0230 C   0  0  0  0  0  0  0  0  0  0  0  0
  1  2  1  0
  2  3  2  0
  3  4  1  0
  2  5  1  0
  5  6  2  0
  6  7  1  0
  6  8  1  0
  8  9  1  0
  4 10  2  0
  7 10  1  0
  7 11  1  0
  9 12  2  0
 11 12  1  0
M  END
$$$$

     RDKit          3D

 12 12  0  0  0  0  0  0  0  0999 V2000
  140.3037  150.2154  139.4789 Cl  0  0  0  0  0  0  0  0  0  0  0  0
  138.6781  150.1864  140.5322 C   0  0  0  0  0  0  0  0  0  0  0  0
  137.6383  149.3835  140.0932 C   0  0  0  0  0  0  0  0  0  0  0  0
  139.0323  150.8827  141.6188 C   0  0  0  0  0  0  0  0  0  0  0  0
  136.4854  149.4748  141.0069 C   0  0  0  0  0  0  0  0  0  0  0  0
  136.6936  150.4331  141.9090 C   0  0  0  0  0  0  0  0  0  0  0  0
  135.4547  150.7046  142.8858 C   0  0  0  0  0  0  0  0  0  0  0  0
  135.9649  151.2433  144.1628 C   0  0  0  0  0  0  0  0  0  0  0  0
  137.9198  151.0739  142.4092 C   0  0  0  0  0  0  0  0  0  0  0  0
  135.0153  151.5651  145.2072 C   0  0  0  0  0  0  0  0  0  0  0  0
  133.8986  151.3283  145.3922 C   0  0  0  0  0  0  0  0  0  0  0  0
  135.9187  152.4402  146.1334 C   0  0  0  0  0  0  0  0  0  0  0  0
  1  2  1  0
  2  3  2  0
  2  4  1  0
  3  5  1  0
  5  6  2  0
  6  7  1  0
  7  8  2  3
  4  9  2  0
  6  9  1  0
  8 10  1  0
 10 11  2  0
 10 12  1  0
M  END
$$$$

     RDKit          3D

 12 13  0  0  0  0  0  0  0  0999 V2000
  140.3037  150.2154  139.4789 Cl  0  0  0  0  0  0  0  0  0  0  0  0
  138.6781  150.1864  140.5322 C   0  0  0  0  0  0  0  0  0  0  0  0
  137.6383  149.3835  140.0932 C   0  0  0  0  0  0  0  0  0  0  0  0
  138.8659  150.7191  141.4521 C   0  0  0  0  0  0  0  0  0  0  0  0
  136.5657  149.5899  140.7699 C   0  0  0  0  0  0  0  0  0  0  0  0
  136.4133  150.3723  141.9098 C   0  0  0  0  0  0  0  0  0  0  0  0
  135.2492  150.5994  142.7383 C   0  0  0  0  0  0  0  0  0  0  0  0
  135.5657  151.2833  144.0142 C   0  0  0  0  0  0  0  0  0  0  0  0
  137.7156  150.9755  142.4209 C   0  0  0  0  0  0  0  0  0  0  0  0
  137.7863  151.6406  143.6478 C   0  0  0  0  0  0  0  0  0  0  0  0
  136.6947  151.7655  144.4590 C   0  0  0  0  0  0  0  0  0  0  0  0
  136.6878  152.4784  145.9489 Cl  0  0  0  0  0  0  0  0  0  0  0  0
  1  2  1  0
  2  3  2  0
  2  4  1  0
  3  5  1  0
  5  6  2  0
  6  7  1  0
  7  8  2  0
  4  9  2  0
  6  9  1  0
  9 10  1  0
  8 11  1  0
 10 11  2  0
 11 12  1  0
M  END
$$$$

     RDKit          3D

 12 13  0  0  0  0  0  0  0  0999 V2000
  140.3037  150.2154  139.4789 Cl  0  0  0  0  0  0  0  0  0  0  0  0
  138.6781  150.1864  140.5322 C   0  0  0  0  0  0  0  0  0  0  0  0
  137.6383  149.3835  140.0932 C   0  0  0  0  0  0  0  0  0  0  0  0
  138.8659  150.7191  141.4521 C   0  0  0  0  0  0  0  0  0  0  0  0
  137.8205  150.8021  142.5167 C   0  0  0  0  0  0  0  0  0  0  0  0
  138.0507  151.4552  143.8205 C   0  0  0  0  0  0  0  0  0  0  0  0
  136.7024  150.0764  142.0189 C   0  0  0  0  0  0  0  0  0  0  0  0
  139.1586  151.7912  144.2108 C   0  0  0  0  0  0  0  0  0  0  0  0
  136.8692  151.5211  144.4852 C   0  0  0  0  0  0  0  0  0  0  0  0
  136.4600  149.5531  140.9192 C   0  0  0  0  0  0  0  0  0  0  0  0
  135.6391  151.2440  144.2022 C   0  0  0  0  0  0  0  0  0  0  0  0
  135.4019  150.4733  142.9461 C   0  0  0  0  0  0  0  0  0  0  0  0
  1  2  1  0
  2  3  2  0
  2  4  1  0
  4  5  2  0
  5  6  1  0
  5  7  1  0
  6  8  2  0
  6  9  1  0
  3 10  1  0
  7 10  2  0
  9 11  2  0
  7 12  1  0
 11 12  1  0
M  END
$$$$

     RDKit          3D

 12 13  0  0  0  0  0  0  0  0999 V2000
  139.3949  150.7520  142.0139 C   0  0  0  0  0  0  0  0  0  0  0  0
  139.0650  150.4902  140.7539 C   0  0  0  0  0  0  0  0  0  0  0  0
  138.4480  150.6358  143.0423 C   0  0  0  0  0  0  0  0  0  0  0  0
  137.8333  149.9840  140.4385 C   0  0  0  0  0  0  0  0  0  0  0  0
  136.8990  149.7641  141.3325 C   0  0  0  0  0  0  0  0  0  0  0  0
  138.7709  151.0470  144.4226 C   0  0  0  0  0  0  0  0  0  0  0  0
  135.4591  149.4789  141.0537 C   0  0  0  0  0  0  0  0  0  0  0  0
  137.5978  151.6354  145.1735 C   0  0  0  0  0  0  0  0  0  0  0  0
  136.4937  151.6275  144.5402 C   0  0  0  0  0  0  0  0  0  0  0  0
  135.4020  152.3049  145.3708 C   0  0  0  0  0  0  0  0  0  0  0  0
  137.1099  150.4813  142.9091 C   0  0  0  0  0  0  0  0  0  0  0  0
  136.0706  150.8776  143.5957 C   0  0  0  0  0  0  0  0  0  0  0  0
  1  2  2  0
  1  3  1  0
  2  4  1  0
  4  5  2  0
  3  6  1  0
  5  7  1  0
  6  8  2  0
  8  9  1  0
  9 10  1  0
  3 11  2  0
  5 11  1  0
  9 12  2  0
 11 12  1  0
M  END
$$$$

     RDKit          3D

 12 12  0  0  0  0  0  0  0  0999 V2000
  140.3037  150.2154  139.4789 Cl  0  0  0  0  0  0  0  0  0  0  0  0
  138.6781  150.1864  140.5322 C   0  0  0  0  0  0  0  0  0  0  0  0
  137.6383  149.3835  140.0932 C   0  0  0  0  0  0  0  0  0  0  0  0
  136.4381  149.4572  140.8191 C   0  0  0  0  0  0  0  0  0  0  0  0
  138.8130  150.8921  141.7043 C   0  0  0  0  0  0  0  0  0  0  0  0
  135.2492  148.9579  140.1871 C   0  0  0  0  0  0  0  0  0  0  0  0
  136.6091  150.4171  141.7375 C   0  0  0  0  0  0  0  0  0  0  0  0
  137.6591  151.0081  142.3297 C   0  0  0  0  0  0  0  0  0  0  0  0
  137.5878  151.8487  143.5806 C   0  0  0  0  0  0  0  0  0  0  0  0
  136.5163  151.6208  144.4584 C   0  0  0  0  0  0  0  0  0  0  0  0
  136.1353  152.7416  145.3601 C   0  0  0  0  0  0  0  0  0  0  0  0
  136.7443  153.8504  145.3337 C   0  0  0  0  0  0  0  0  0  0  0  0
  1  2  1  0
  2  3  2  0
  3  4  1  0
  2  5  1  0
  4  6  1  0
  4  7  2  0
  5  8  2  0
  7  8  1  0
  8  9  1  0
  9 10  1  0
 10 11  1  0
 11 12  2  0
M  END
$$$$

     RDKit          3D

 12 12  0  0  0  0  0  0  0  0999 V2000
  139.5547  150.5069  140.4449 C   0  0  0  0  0  0  0  0  0  0  0  0
  139.2163  150.0152  139.3729 C   0  0  0  0  0  0  0  0  0  0  0  0
  138.8578  150.3067  141.5860 C   0  0  0  0  0  0  0  0  0  0  0  0
  139.2256  150.3492  142.8903 C   0  0  0  0  0  0  0  0  0  0  0  0
  138.3524  151.0108  143.9708 C   0  0  0  0  0  0  0  0  0  0  0  0
  137.3975  151.4215  143.6155 C   0  0  0  0  0  0  0  0  0  0  0  0
  140.0603  149.8221  138.1670 C   0  0  0  0  0  0  0  0  0  0  0  0
  136.6871  151.4097  142.5647 C   0  0  0  0  0  0  0  0  0  0  0  0
  137.3716  150.7089  141.4313 C   0  0  0  0  0  0  0  0  0  0  0  0
  136.5120  152.1445  144.7903 C   0  0  0  0  0  0  0  0  0  0  0  0
  135.4156  151.4820  145.3040 C   0  0  0  0  0  0  0  0  0  0  0  0
  136.7275  153.2584  144.9625 O   0  0  0  0  0  0  0  0  0  0  0  0
  1  2  2  3
  1  3  1  0
  3  4  1  0
  4  5  2  0
  5  6  1  0
  2  7  1  0
  6  8  2  0
  3  9  2  0
  8  9  1  0
  6 10  1  0
 10 11  1  0
 10 12  2  0
M  END
$$$$

     RDKit          3D

 12 12  0  0  0  0  0  0  0  0999 V2000
  140.3037  150.2154  139.4789 Cl  0  0  0  0  0  0  0  0  0  0  0  0
  138.6781  150.1864  140.5322 C   0  0  0  0  0  0  0  0  0  0  0  0
  137.6383  149.3835  140.0932 C   0  0  0  0  0  0  0  0  0  0  0  0
  138.8659  150.7191  141.4521 C   0  0  0  0  0  0  0  0  0  0  0  0
  137.8205  150.8021  142.5167 C   0  0  0  0  0  0  0  0  0  0  0  0
  138.0507  151.4552  143.8205 C   0  0  0  0  0  0  0  0  0  0  0  0
  136.7024  150.0764  142.0189 C   0  0  0  0  0  0  0  0  0  0  0  0
  139.1586  151.7912  144.2108 C   0  0  0  0  0  0  0  0  0  0  0  0
  136.8818  151.6292  144.6563 C   0  0  0  0  0  0  0  0  0  0  0  0
  137.5601  148.7684  138.8759 C   0  0  0  0  0  0  0  0  0  0  0  0
  136.4539  149.6052  140.9785 C   0  0  0  0  0  0  0  0  0  0  0  0
  135.6420  151.3776  144.3654 C   0  0  0  0  0  0  0  0  0  0  0  0
  1  2  1  0
  2  3  2  0
  2  4  1  0
  4  5  2  0
  5  6  1  0
  5  7  1  0
  6  8  2  0
  6  9  1  0
  3 10  1  0
  3 11  1  0
  7 11  2  0
  9 12  2  0
M  END
$$$$

     RDKit          3D

 12 12  0  0  0  0  0  0  0  0999 V2000
  140.3037  150.2154  139.4789 Cl  0  0  0  0  0  0  0  0  0  0  0  0
  138.6781  150.1864  140.5322 C   0  0  0  0  0  0  0  0  0  0  0  0
  137.6383  149.3835  140.0932 C   0  0  0  0  0  0  0  0  0  0  0  0
  137.5446  148.9634  138.7440 C   0  0  0  0  0  0  0  0  0  0  0  0
  138.4857  150.4371  141.7165 C   0  0  0  0  0  0  0  0  0  0  0  0
  136.4931  149.4203  140.9703 C   0  0  0  0  0  0  0  0  0  0  0  0
  136.5976  150.0063  142.1697 C   0  0  0  0  0  0  0  0  0  0  0  0
  137.5947  150.5811  142.5685 C   0  0  0  0  0  0  0  0  0  0  0  0
  137.6098  151.1940  143.9271 C   0  0  0  0  0  0  0  0  0  0  0  0
  136.4713  151.4892  144.5879 C   0  0  0  0  0  0  0  0  0  0  0  0
  136.5642  152.1102  145.9616 C   0  0  0  0  0  0  0  0  0  0  0  0
  135.3971  152.9408  146.3896 C   0  0  0  0  0  0  0  0  0  0  0  0
  1  2  1  0
  2  3  2  0
  3  4  1  0
  2  5  1  0
  3  6  1  0
  6  7  2  0
  5  8  2  0
  7  8  1  0
  8  9  1  0
  9 10  1  0
 10 11  1  0
 11 12  1  0
M  END
$$$$

     RDKit          3D

 12 13  0  0  0  0  0  0  0  0999 V2000
  140.3037  150.2154  139.4789 Cl  0  0  0  0  0  0  0  0  0  0  0  0
  138.6781  150.1864  140.5322 C   0  0  0  0  0  0  0  0  0  0  0  0
  137.6383  149.3835  140.0932 C   0  0  0  0  0  0  0  0  0  0  0  0
  138.8659  150.7191  141.4521 C   0  0  0  0  0  0  0  0  0  0  0  0
  136.5657  149.5899  140.7699 C   0  0  0  0  0  0  0  0  0  0  0  0
  136.4133  150.3723  141.9098 C   0  0  0  0  0  0  0  0  0  0  0  0
  135.2492  150.5994  142.7383 C   0  0  0  0  0  0  0  0  0  0  0  0
  135.7085  151.3034  143.9929 C   0  0  0  0  0  0  0  0  0  0  0  0
  134.8711  151.7007  145.0273 C   0  0  0  0  0  0  0  0  0  0  0  0
  135.4628  152.5509  146.1171 C   0  0  0  0  0  0  0  0  0  0  0  0
  137.7296  151.0285  142.3587 C   0  0  0  0  0  0  0  0  0  0  0  0
  137.2536  151.5891  144.0885 C   0  0  0  0  0  0  0  0  0  0  0  0
  1  2  1  0
  2  3  2  0
  2  4  1  0
  3  5  1  0
  5  6  2  0
  6  7  1  0
  7  8  2  0
  8  9  1  0
  9 10  1  0
  4 11  2  0
  6 11  1  0
  8 12  1  0
 11 12  1  0
M  END
$$$$

     RDKit          3D

 12 13  0  0  0  0  0  0  0  0999 V2000
  140.3037  150.2154  139.4789 Cl  0  0  0  0  0  0  0  0  0  0  0  0
  138.6781  150.1864  140.5322 C   0  0  0  0  0  0  0  0  0  0  0  0
  137.6383  149.3835  140.0932 C   0  0  0  0  0  0  0  0  0  0  0  0
  139.0323  150.8827  141.6188 C   0  0  0  0  0  0  0  0  0  0  0  0
  138.0466  150.8334  142.6902 C   0  0  0  0  0  0  0  0  0  0  0  0
  136.8389  150.0632  142.4017 C   0  0  0  0  0  0  0  0  0  0  0  0
  137.3721  148.8666  138.9192 C   0  0  0  0  0  0  0  0  0  0  0  0
  135.8191  150.2593  143.4713 C   0  0  0  0  0  0  0  0  0  0  0  0
  136.4102  151.2471  144.4811 C   0  0  0  0  0  0  0  0  0  0  0  0
  136.5204  149.5772  141.0732 C   0  0  0  0  0  0  0  0  0  0  0  0
  138.2821  151.2859  143.9853 C   0  0  0  0  0  0  0  0  0  0  0  0
  137.4904  151.5071  144.9367 C   0  0  0  0  0  0  0  0  0  0  0  0
  1  2  1  0
  2  3  2  0
  2  4  1  0
  4  5  2  0
  5  6  1  0
  3  7  1  0
  6  8  1  0
  8  9  1  0
  3 10  1  0
  6 10  2  0
  5 11  1  0
  9 12  2  0
 11 12  2  0
M  END
$$$$

     RDKit          3D

 12 13  0  0  0  0  0  0  0  0999 V2000
  140.3037  150.2154  139.4789 Cl  0  0  0  0  0  0  0  0  0  0  0  0
  138.6781  150.1864  140.5322 C   0  0  0  0  0  0  0  0  0  0  0  0
  137.6383  149.3835  140.0932 C   0  0  0  0  0  0  0  0  0  0  0  0
  136.4381  149.4572  140.8191 C   0  0  0  0  0  0  0  0  0  0  0  0
  139.1310  150.7531  141.5085 C   0  0  0  0  0  0  0  0  0  0  0  0
  138.1124  150.7972  142.6518 C   0  0  0  0  0  0  0  0  0  0  0  0
  136.8765  150.4821  142.6413 C   0  0  0  0  0  0  0  0  0  0  0  0
  138.4674  151.5134  144.0753 C   0  0  0  0  0  0  0  0  0  0  0  0
  137.4174  151.9366  144.7466 C   0  0  0  0  0  0  0  0  0  0  0  0
  135.3512  149.0156  139.7679 C   0  0  0  0  0  0  0  0  0  0  0  0
  135.9993  150.1277  141.7750 C   0  0  0  0  0  0  0  0  0  0  0  0
  136.3925  151.1090  143.9286 N   0  0  0  0  0  0  0  0  0  0  0  0
  1  2  1  0
  2  3  2  0
  3  4  1  0
  2  5  1  0
  5  6  2  0
  6  7  1  0
  6  8  1  0
  8  9  1  0
  4 10  1  0
  4 11  2  0
  7 11  1  0
  7 12  1  0
  9 12  1  0
M  END
$$$$

     RDKit          3D

 12 13  0  0  0  0  0  0  0  0999 V2000
  139.3434  149.9921  140.5876 C   0  0  0  0  0  0  0  0  0  0  0  0
  138.9518  149.9236  139.3657 C   0  0  0  0  0  0  0  0  0  0  0  0
  138.6168  150.1115  141.6414 C   0  0  0  0  0  0  0  0  0  0  0  0
  137.1898  149.8671  141.8329 C   0  0  0  0  0  0  0  0  0  0  0  0
  136.5148  149.7637  140.5812 C   0  0  0  0  0  0  0  0  0  0  0  0
  139.1786  150.4016  143.1316 C   0  0  0  0  0  0  0  0  0  0  0  0
  138.3339  151.1454  143.8950 C   0  0  0  0  0  0  0  0  0  0  0  0
  137.2141  149.6946  139.2603 C   0  0  0  0  0  0  0  0  0  0  0  0
  137.0026  151.1648  143.8765 C   0  0  0  0  0  0  0  0  0  0  0  0
  136.2650  151.6610  144.9974 C   0  0  0  0  0  0  0  0  0  0  0  0
  135.0781  152.3418  144.8373 C   0  0  0  0  0  0  0  0  0  0  0  0
  136.3641  150.4377  142.7637 C   0  0  0  0  0  0  0  0  0  0  0  0
  1  2  2  0
  1  3  1  0
  3  4  1  0
  4  5  2  0
  3  6  1  0
  6  7  2  0
  2  8  1  0
  5  8  1  0
  7  9  1  0
  9 10  1  0
 10 11  1  0
  4 12  1  0
  9 12  2  0
M  END
$$$$

     RDKit          3D

 12 12  0  0  0  0  0  0  0  0999 V2000
  140.3037  150.2154  139.4789 Cl  0  0  0  0  0  0  0  0  0  0  0  0
  138.6781  150.1864  140.5322 C   0  0  0  0  0  0  0  0  0  0  0  0
  137.6383  149.3835  140.0932 C   0  0  0  0  0  0  0  0  0  0  0  0
  138.7726  150.9278  141.6514 C   0  0  0  0  0  0  0  0  0  0  0  0
  138.1293  150.9128  142.4416 C   0  0  0  0  0  0  0  0  0  0  0  0
  138.2155  151.5104  143.8856 C   0  0  0  0  0  0  0  0  0  0  0  0
  136.8872  150.1827  142.6103 C   0  0  0  0  0  0  0  0  0  0  0  0
  137.6351  148.9096  138.8038 C   0  0  0  0  0  0  0  0  0  0  0  0
  136.0182  150.3261  143.7393 C   0  0  0  0  0  0  0  0  0  0  0  0
  136.6524  151.0298  144.7822 C   0  0  0  0  0  0  0  0  0  0  0  0
  135.6806  151.0608  146.0939 Cl  0  0  0  0  0  0  0  0  0  0  0  0
  137.7712  151.6687  144.8578 C   0  0  0  0  0  0  0  0  0  0  0  0
  1  2  1  0
  2  3  1  0
  2  4  2  3
  4  5  1  0
  5  6  1  0
  5  7  2  0
  3  8  1  0
  7  9  1  0
  9 10  2  0
 10 11  1  0
  6 12  2  0
 10 12  1  0
M  END
$$$$

     RDKit          3D

 13 14  0  0  0  0  0  0  0  0999 V2000
  140.3037  150.2154  139.4789 Cl  0  0  0  0  0  0  0  0  0  0  0  0
  138.6781  150.1864  140.5322 C   0  0  0  0  0  0  0  0  0  0  0  0
  137.6383  149.3835  140.0932 C   0  0  0  0  0  0  0  0  0  0  0  0
  139.2398  150.7167  141.5765 C   0  0  0  0  0  0  0  0  0  0  0  0
  138.2210  150.6933  142.6926 C   0  0  0  0  0  0  0  0  0  0  0  0
  138.5246  151.2961  144.0072 C   0  0  0  0  0  0  0  0  0  0  0  0
  137.5101  151.9933  144.4824 C   0  0  0  0  0  0  0  0  0  0  0  0
  136.4881  151.8084  144.2255 C   0  0  0  0  0  0  0  0  0  0  0  0
  135.2401  152.4558  144.9698 C   0  0  0  0  0  0  0  0  0  0  0  0
  135.3317  153.6670  145.4150 C   0  0  0  0  0  0  0  0  0  0  0  0
  136.3526  150.9256  143.1471 C   0  0  0  0  0  0  0  0  0  0  0  0
  137.2050  150.4677  142.4565 C   0  0  0  0  0  0  0  0  0  0  0  0
  136.7481  149.5723  141.2083 C   0  0  0  0  0  0  0  0  0  0  0  0
  1  2  1  0
  2  3  1  0
  2  4  2  0
  4  5  1  0
  5  6  1  0
  6  7  2  0
  7  8  1  0
  8  9  1  0
  9 10  1  0
  8 11  2  0
  5 12  2  0
 11 12  1  0
  3 13  2  0
 12 13  1  0
M  END
$$$$

     RDKit          3D

 13 13  0  0  0  0  0  0  0  0999 V2000
  140.3037  150.2154  139.4789 Cl  0  0  0  0  0  0  0  0  0  0  0  0
  138.6781  150.1864  140.5322 C   0  0  0  0  0  0  0  0  0  0  0  0
  137.6383  149.3835  140.0932 C   0  0  0  0  0  0  0  0  0  0  0  0
  138.7726  150.9278  141.6514 C   0  0  0  0  0  0  0  0  0  0  0  0
  137.6838  150.8829  142.5424 C   0  0  0  0  0  0  0  0  0  0  0  0
  137.8361  151.5203  143.8923 C   0  0  0  0  0  0  0  0  0  0  0  0
  136.6904  151.6917  144.6959 C   0  0  0  0  0  0  0  0  0  0  0  0
  137.6537  148.8491  138.8355 C   0  0  0  0  0  0  0  0  0  0  0  0
  136.4363  149.4317  140.9050 C   0  0  0  0  0  0  0  0  0  0  0  0
  135.2817  148.8881  140.4506 C   0  0  0  0  0  0  0  0  0  0  0  0
  136.6875  152.5007  145.8534 C   0  0  0  0  0  0  0  0  0  0  0  0
  136.6344  150.1661  142.0990 C   0  0  0  0  0  0  0  0  0  0  0  0
  135.4374  153.1862  145.8363 C   0  0  0  0  0  0  0  0  0  0  0  0
  1  2  1  0
  2  3  1  0
  2  4  2  0
  4  5  1  0
  5  6  1  0
  6  7  2  3
  3  8  1  0
  3  9  2  0
  9 10  1  0
  7 11  1  0
  5 12  2  0
  9 12  1  0
 11 13  1  0
M  END
$$$$

     RDKit          3D

 13 13  0  0  0  0  0  0  0  0999 V2000
  140.3037  150.2154  139.4789 Cl  0  0  0  0  0  0  0  0  0  0  0  0
  138.6781  150.1864  140.5322 C   0  0  0  0  0  0  0  0  0  0  0  0
  137.6383  149.3835  140.0932 C   0  0  0  0  0  0  0  0  0  0  0  0
  138.7726  150.9278  141.6514 C   0  0  0  0  0  0  0  0  0  0  0  0
  138.1293  150.9128  142.4416 C   0  0  0  0  0  0  0  0  0  0  0  0
  137.5753  148.9052  138.7236 C   0  0  0  0  0  0  0  0  0  0  0  0
  136.7592  150.1928  142.4640 C   0  0  0  0  0  0  0  0  0  0  0  0
  135.8311  150.3482  143.4723 C   0  0  0  0  0  0  0  0  0  0  0  0
  136.4080  149.4875  140.9561 C   0  0  0  0  0  0  0  0  0  0  0  0
  136.3037  150.8958  144.5537 C   0  0  0  0  0  0  0  0  0  0  0  0
  135.4235  151.2127  145.7306 C   0  0  0  0  0  0  0  0  0  0  0  0
  134.4550  150.7517  146.1302 C   0  0  0  0  0  0  0  0  0  0  0  0
  135.9795  152.5217  146.4857 C   0  0  0  0  0  0  0  0  0  0  0  0
  1  2  1  0
  2  3  1  0
  2  4  2  0
  4  5  1  0
  3  6  1  0
  5  7  2  0
  7  8  1  0
  3  9  2  0
  7  9  1  0
  8 10  2  3
 10 11  1  0
 11 12  2  0
 11 13  1  0
M  END
$$$$

     RDKit          3D

 13 14  0  0  0  0  0  0  0  0999 V2000
  140.3037  150.2154  139.4789 Cl  0  0  0  0  0  0  0  0  0  0  0  0
  138.6781  150.1864  140.5322 C   0  0  0  0  0  0  0  0  0  0  0  0
  137.6383  149.3835  140.0932 C   0  0  0  0  0  0  0  0  0  0  0  0
  139.0323  150.8827  141.6188 C   0  0  0  0  0  0  0  0  0  0  0  0
  138.0466  150.8334  142.6902 C   0  0  0  0  0  0  0  0  0  0  0  0
  136.8389  150.0632  142.4017 C   0  0  0  0  0  0  0  0  0  0  0  0
  137.3721  148.8666  138.9192 C   0  0  0  0  0  0  0  0  0  0  0  0
  135.8191  150.2593  143.4713 C   0  0  0  0  0  0  0  0  0  0  0  0
  136.4102  151.2471  144.4811 C   0  0  0  0  0  0  0  0  0  0  0  0
  136.4192  149.5096  141.1554 C   0  0  0  0  0  0  0  0  0  0  0  0
  135.8374  151.6322  145.5997 C   0  0  0  0  0  0  0  0  0  0  0  0
  137.9500  151.3616  143.9870 C   0  0  0  0  0  0  0  0  0  0  0  0
  135.1638  152.8835  145.7031 C   0  0  0  0  0  0  0  0  0  0  0  0
  1  2  1  0
  2  3  2  0
  2  4  1  0
  4  5  2  0
  5  6  1  0
  3  7  1  0
  6  8  1  0
  8  9  1  0
  3 10  1  0
  6 10  2  0
  9 11  1  0
  5 12  1  0
  9 12  1  0
 11 13  1  0
M  END
$$$$

     RDKit          3D

 13 14  0  0  0  0  0  0  0  0999 V2000
  138.9995  149.7631  140.3651 C   0  0  0  0  0  0  0  0  0  0  0  0
  138.7139  149.5446  139.1245 C   0  0  0  0  0  0  0  0  0  0  0  0
  138.1832  150.1045  141.2841 C   0  0  0  0  0  0  0  0  0  0  0  0
  137.3206  149.5905  138.6810 C   0  0  0  0  0  0  0  0  0  0  0  0
  136.9836  149.1476  137.4587 O   0  0  0  0  0  0  0  0  0  0  0  0
  138.6053  150.6473  142.5904 C   0  0  0  0  0  0  0  0  0  0  0  0
  136.8415  150.3585  141.0404 C   0  0  0  0  0  0  0  0  0  0  0  0
  135.9113  150.6663  142.1137 C   0  0  0  0  0  0  0  0  0  0  0  0
  134.5600  150.6789  141.8549 C   0  0  0  0  0  0  0  0  0  0  0  0
  137.6227  150.9679  143.4713 C   0  0  0  0  0  0  0  0  0  0  0  0
  138.2206  151.2581  145.0002 C   0  0  0  0  0  0  0  0  0  0  0  0
  136.5046  149.8361  139.7350 C   0  0  0  0  0  0  0  0  0  0  0  0
  136.3317  151.0993  143.3188 C   0  0  0  0  0  0  0  0  0  0  0  0
  1  2  2  0
  1  3  1  0
  2  4  1  0
  4  5  1  0
  3  6  1  0
  3  7  2  0
  7  8  1  0
  8  9  1  0
  6 10  2  0
 10 11  1  0
  4 12  2  0
  7 12  1  0
  8 13  1  0
 10 13  1  0
M  END
$$$$

     RDKit          3D

 13 14  0  0  0  0  0  0  0  0999 V2000
  138.9995  149.7631  140.3651 C   0  0  0  0  0  0  0  0  0  0  0  0
  138.7139  149.5446  139.1245 C   0  0  0  0  0  0  0  0  0  0  0  0
  138.1832  150.1045  141.2841 C   0  0  0  0  0  0  0  0  0  0  0  0
  137.3206  149.5905  138.6810 C   0  0  0  0  0  0  0  0  0  0  0  0
  136.9836  149.1476  137.4587 O   0  0  0  0  0  0  0  0  0  0  0  0
  138.6053  150.6473  142.5904 C   0  0  0  0  0  0  0  0  0  0  0  0
  136.8415  150.3585  141.0404 C   0  0  0  0  0  0  0  0  0  0  0  0
  135.9113  150.6663  142.1137 C   0  0  0  0  0  0  0  0  0  0  0  0
  134.5600  150.6789  141.8549 C   0  0  0  0  0  0  0  0  0  0  0  0
  136.7319  150.9827  142.9796 C   0  0  0  0  0  0  0  0  0  0  0  0
  136.5210  149.7863  139.7487 C   0  0  0  0  0  0  0  0  0  0  0  0
  137.6593  151.0235  143.4749 C   0  0  0  0  0  0  0  0  0  0  0  0
  137.8808  151.2720  144.8791 C   0  0  0  0  0  0  0  0  0  0  0  0
  1  2  2  0
  1  3  1  0
  2  4  1  0
  4  5  1  0
  3  6  1  0
  3  7  2  0
  7  8  1  0
  8  9  1  0
  8 10  2  0
  4 11  2  0
  7 11  1  0
  6 12  1  0
 10 12  1  0
 12 13  2  0
M  END
$$$$

     RDKit          3D

 13 14  0  0  0  0  0  0  0  0999 V2000
  139.3434  149.9921  140.5876 C   0  0  0  0  0  0  0  0  0  0  0  0
  138.9518  149.9236  139.3657 C   0  0  0  0  0  0  0  0  0  0  0  0
  138.6168  150.1115  141.6414 C   0  0  0  0  0  0  0  0  0  0  0  0
  137.1898  149.8671  141.8329 C   0  0  0  0  0  0  0  0  0  0  0  0
  136.5148  149.7637  140.5812 C   0  0  0  0  0  0  0  0  0  0  0  0
  139.1786  150.4016  143.1316 C   0  0  0  0  0  0  0  0  0  0  0  0
  138.3339  151.1454  143.8950 C   0  0  0  0  0  0  0  0  0  0  0  0
  136.9941  151.0549  143.8223 C   0  0  0  0  0  0  0  0  0  0  0  0
  139.7963  149.9608  138.2189 C   0  0  0  0  0  0  0  0  0  0  0  0
  136.3162  150.3304  142.8082 C   0  0  0  0  0  0  0  0  0  0  0  0
  136.1670  151.7234  145.0681 C   0  0  0  0  0  0  0  0  0  0  0  0
  134.9082  151.4837  145.1364 C   0  0  0  0  0  0  0  0  0  0  0  0
  137.2031  149.6515  139.2823 C   0  0  0  0  0  0  0  0  0  0  0  0
  1  2  2  0
  1  3  1  0
  3  4  1  0
  4  5  2  0
  3  6  1  0
  6  7  2  0
  7  8  1  0
  2  9  1  0
  4 10  1  0
  8 10  2  0
  8 11  1  0
 11 12  2  0
  2 13  1  0
  5 13  1  0
M  END
$$$$

     RDKit          3D

 13 14  0  0  0  0  0  0  0  0999 V2000
  140.3037  150.2154  139.4789 Cl  0  0  0  0  0  0  0  0  0  0  0  0
  138.6781  150.1864  140.5322 C   0  0  0  0  0  0  0  0  0  0  0  0
  137.6383  149.3835  140.0932 C   0  0  0  0  0  0  0  0  0  0  0  0
  139.2398  150.7167  141.5765 C   0  0  0  0  0  0  0  0  0  0  0  0
  138.2210  150.6933  142.6926 C   0  0  0  0  0  0  0  0  0  0  0  0
  138.5246  151.2961  144.0072 C   0  0  0  0  0  0  0  0  0  0  0  0
  137.5101  151.9933  144.4824 C   0  0  0  0  0  0  0  0  0  0  0  0
  136.4881  151.8084  144.2255 C   0  0  0  0  0  0  0  0  0  0  0  0
  135.2401  152.4558  144.9698 C   0  0  0  0  0  0  0  0  0  0  0  0
  136.2072  150.8782  143.0668 C   0  0  0  0  0  0  0  0  0  0  0  0
  137.1867  150.4617  142.4315 C   0  0  0  0  0  0  0  0  0  0  0  0
  134.8206  151.9972  146.0860 C   0  0  0  0  0  0  0  0  0  0  0  0
  136.6819  149.6595  141.2464 N   0  0  0  0  0  0  0  0  0  0  0  0
  1  2  1  0
  2  3  1  0
  2  4  2  0
  4  5  1  0
  5  6  1  0
  6  7  2  0
  7  8  1  0
  8  9  1  0
  8 10  2  0
  5 11  2  0
 10 11  1  0
  9 12  1  0
  3 13  2  0
 11 13  1  0
M  END
$$$$

     RDKit          3D

 13 14  0  0  0  0  0  0  0  0999 V2000
  140.3037  150.2154  139.4789 Cl  0  0  0  0  0  0  0  0  0  0  0  0
  138.6781  150.1864  140.5322 C   0  0  0  0  0  0  0  0  0  0  0  0
  137.6383  149.3835  140.0932 C   0  0  0  0  0  0  0  0  0  0  0  0
  139.2398  150.7167  141.5765 C   0  0  0  0  0  0  0  0  0  0  0  0
  138.2210  150.6933  142.6926 C   0  0  0  0  0  0  0  0  0  0  0  0
  138.5246  151.2961  144.0072 C   0  0  0  0  0  0  0  0  0  0  0  0
  137.5101  151.9933  144.4824 C   0  0  0  0  0  0  0  0  0  0  0  0
  136.4881  151.8084  144.2255 C   0  0  0  0  0  0  0  0  0  0  0  0
  135.2401  152.4558  144.9698 C   0  0  0  0  0  0  0  0  0  0  0  0
  136.2072  150.8782  143.0668 C   0  0  0  0  0  0  0  0  0  0  0  0
  134.5498  151.8905  145.7648 C   0  0  0  0  0  0  0  0  0  0  0  0
  137.1883  150.2829  142.2736 C   0  0  0  0  0  0  0  0  0  0  0  0
  136.7090  149.5862  141.1696 C   0  0  0  0  0  0  0  0  0  0  0  0
  1  2  1  0
  2  3  1  0
  2  4  2  0
  4  5  1  0
  5  6  1  0
  6  7  2  0
  7  8  1  0
  8  9  1  0
  8 10  2  0
  9 11  2  0
  5 12  2  0
 10 12  1  0
  3 13  2  0
 12 13  1  0
M  END
$$$$

     RDKit          3D

 13 14  0  0  0  0  0  0  0  0999 V2000
  140.3037  150.2154  139.4789 Cl  0  0  0  0  0  0  0  0  0  0  0  0
  138.6781  150.1864  140.5322 C   0  0  0  0  0  0  0  0  0  0  0  0
  137.6383  149.3835  140.0932 C   0  0  0  0  0  0  0  0  0  0  0  0
  139.0323  150.8827  141.6188 C   0  0  0  0  0  0  0  0  0  0  0  0
  138.0466  150.8334  142.6902 C   0  0  0  0  0  0  0  0  0  0  0  0
  136.8389  150.0632  142.4017 C   0  0  0  0  0  0  0  0  0  0  0  0
  135.7986  150.2251  143.4009 C   0  0  0  0  0  0  0  0  0  0  0  0
  136.2526  151.2188  144.4069 C   0  0  0  0  0  0  0  0  0  0  0  0
  135.5909  151.7267  145.5088 C   0  0  0  0  0  0  0  0  0  0  0  0
  138.4214  151.3877  143.8448 C   0  0  0  0  0  0  0  0  0  0  0  0
  136.5715  149.5038  141.1199 C   0  0  0  0  0  0  0  0  0  0  0  0
  135.6689  153.1340  145.7821 C   0  0  0  0  0  0  0  0  0  0  0  0
  137.4342  151.2992  144.8180 C   0  0  0  0  0  0  0  0  0  0  0  0
  1  2  1  0
  2  3  2  0
  2  4  1  0
  4  5  2  0
  5  6  1  0
  6  7  1  0
  7  8  1  0
  8  9  1  0
  5 10  1  0
  3 11  1  0
  6 11  2  0
  9 12  1  0
  8 13  1  0
 10 13  1  0
M  END
$$$$

     RDKit          3D

 13 14  0  0  0  0  0  0  0  0999 V2000
  139.3434  149.9921  140.5876 C   0  0  0  0  0  0  0  0  0  0  0  0
  138.9518  149.9236  139.3657 C   0  0  0  0  0  0  0  0  0  0  0  0
  138.6168  150.1115  141.6414 C   0  0  0  0  0  0  0  0  0  0  0  0
  137.1898  149.8671  141.8329 C   0  0  0  0  0  0  0  0  0  0  0  0
  136.5148  149.7637  140.5812 C   0  0  0  0  0  0  0  0  0  0  0  0
  139.1786  150.4016  143.1316 C   0  0  0  0  0  0  0  0  0  0  0  0
  138.3339  151.1454  143.8950 C   0  0  0  0  0  0  0  0  0  0  0  0
  136.9941  151.0549  143.8223 C   0  0  0  0  0  0  0  0  0  0  0  0
  136.3286  150.3864  142.7838 C   0  0  0  0  0  0  0  0  0  0  0  0
  136.2090  151.6992  144.9256 C   0  0  0  0  0  0  0  0  0  0  0  0
  136.7048  152.6503  145.8061 C   0  0  0  0  0  0  0  0  0  0  0  0
  135.2535  149.4790  140.4178 C   0  0  0  0  0  0  0  0  0  0  0  0
  137.4817  149.6452  139.1661 C   0  0  0  0  0  0  0  0  0  0  0  0
  1  2  2  0
  1  3  1  0
  3  4  1  0
  4  5  2  0
  3  6  1  0
  6  7  2  0
  7  8  1  0
  4  9  1  0
  8  9  2  0
  8 10  1  0
 10 11  1  0
  5 12  1  0
  2 13  1  0
  5 13  1  0
M  END
$$$$

     RDKit          3D

 13 14  0  0  0  0  0  0  0  0999 V2000
  139.3434  149.9921  140.5876 C   0  0  0  0  0  0  0  0  0  0  0  0
  138.9518  149.9236  139.3657 C   0  0  0  0  0  0  0  0  0  0  0  0
  138.6168  150.1115  141.6414 C   0  0  0  0  0  0  0  0  0  0  0  0
  137.1898  149.8671  141.8329 C   0  0  0  0  0  0  0  0  0  0  0  0
  136.5148  149.7637  140.5812 C   0  0  0  0  0  0  0  0  0  0  0  0
  139.1786  150.4016  143.1316 C   0  0  0  0  0  0  0  0  0  0  0  0
  138.3339  151.1454  143.8950 C   0  0  0  0  0  0  0  0  0  0  0  0
  136.9941  151.0549  143.8223 C   0  0  0  0  0  0  0  0  0  0  0  0
  137.2362  149.6905  139.2605 C   0  0  0  0  0  0  0  0  0  0  0  0
  136.2253  151.5450  144.9750 C   0  0  0  0  0  0  0  0  0  0  0  0
  136.5359  151.4235  146.2901 C   0  0  0  0  0  0  0  0  0  0  0  0
  136.3320  150.4921  142.7421 C   0  0  0  0  0  0  0  0  0  0  0  0
  135.1620  152.4756  144.9133 C   0  0  0  0  0  0  0  0  0  0  0  0
  1  2  2  0
  1  3  1  0
  3  4  1  0
  4  5  2  0
  3  6  1  0
  6  7  2  0
  7  8  1  0
  2  9  1  0
  5  9  1  0
  8 10  1  0
 10 11  2  0
  4 12  1  0
  8 12  2  0
 10 13  1  0
M  END
$$$$

     RDKit          3D

 13 14  0  0  0  0  0  0  0  0999 V2000
  140.3037  150.2154  139.4789 Cl  0  0  0  0  0  0  0  0  0  0  0  0
  138.6781  150.1864  140.5322 C   0  0  0  0  0  0  0  0  0  0  0  0
  137.6383  149.3835  140.0932 C   0  0  0  0  0  0  0  0  0  0  0  0
  139.0323  150.8827  141.6188 C   0  0  0  0  0  0  0  0  0  0  0  0
  136.4854  149.4748  141.0069 C   0  0  0  0  0  0  0  0  0  0  0  0
  136.6936  150.4331  141.9090 C   0  0  0  0  0  0  0  0  0  0  0  0
  135.4547  150.7046  142.8858 C   0  0  0  0  0  0  0  0  0  0  0  0
  135.9649  151.2433  144.1628 C   0  0  0  0  0  0  0  0  0  0  0  0
  137.9147  151.0240  142.4330 C   0  0  0  0  0  0  0  0  0  0  0  0
  135.0168  151.6003  145.1995 C   0  0  0  0  0  0  0  0  0  0  0  0
  137.9184  151.7310  143.7467 C   0  0  0  0  0  0  0  0  0  0  0  0
  135.6950  152.3078  146.2475 C   0  0  0  0  0  0  0  0  0  0  0  0
  137.1739  151.7394  144.4499 N   0  0  0  0  0  0  0  0  0  0  0  0
  1  2  1  0
  2  3  2  0
  2  4  1  0
  3  5  1  0
  5  6  2  0
  6  7  1  0
  7  8  2  0
  4  9  2  0
  6  9  1  0
  8 10  1  0
  9 11  1  0
 10 12  1  0
  8 13  1  0
 11 13  2  0
M  END
$$$$

     RDKit          3D

 13 14  0  0  0  0  0  0  0  0999 V2000
  140.3037  150.2154  139.4789 Cl  0  0  0  0  0  0  0  0  0  0  0  0
  138.6781  150.1864  140.5322 C   0  0  0  0  0  0  0  0  0  0  0  0
  137.6383  149.3835  140.0932 C   0  0  0  0  0  0  0  0  0  0  0  0
  139.0323  150.8827  141.6188 C   0  0  0  0  0  0  0  0  0  0  0  0
  138.0466  150.8334  142.6902 C   0  0  0  0  0  0  0  0  0  0  0  0
  136.8389  150.0632  142.4017 C   0  0  0  0  0  0  0  0  0  0  0  0
  135.7986  150.2251  143.4009 C   0  0  0  0  0  0  0  0  0  0  0  0
  136.2526  151.2188  144.4069 C   0  0  0  0  0  0  0  0  0  0  0  0
  135.5909  151.7267  145.5088 C   0  0  0  0  0  0  0  0  0  0  0  0
  138.4214  151.3877  143.8448 C   0  0  0  0  0  0  0  0  0  0  0  0
  136.5715  149.5038  141.1199 C   0  0  0  0  0  0  0  0  0  0  0  0
  135.6689  153.1340  145.7821 C   0  0  0  0  0  0  0  0  0  0  0  0
  137.6392  151.3696  144.6422 C   0  0  0  0  0  0  0  0  0  0  0  0
  1  2  1  0
  2  3  2  0
  2  4  1  0
  4  5  2  0
  5  6  1  0
  6  7  1  0
  7  8  1  0
  8  9  1  0
  5 10  1  0
  3 11  1  0
  6 11  2  0
  9 12  1  0
  8 13  1  0
 10 13  2  0
M  END
$$$$

     RDKit          3D

 13 14  0  0  0  0  0  0  0  0999 V2000
  138.9995  149.7631  140.3651 C   0  0  0  0  0  0  0  0  0  0  0  0
  138.7139  149.5446  139.1245 C   0  0  0  0  0  0  0  0  0  0  0  0
  138.1832  150.1045  141.2841 C   0  0  0  0  0  0  0  0  0  0  0  0
  137.3206  149.5905  138.6810 C   0  0  0  0  0  0  0  0  0  0  0  0
  136.7270  150.0359  141.0328 C   0  0  0  0  0  0  0  0  0  0  0  0
  135.7568  150.2398  142.0493 C   0  0  0  0  0  0  0  0  0  0  0  0
  136.3278  149.7151  139.6182 C   0  0  0  0  0  0  0  0  0  0  0  0
  136.3540  151.0221  143.1197 C   0  0  0  0  0  0  0  0  0  0  0  0
  138.5087  150.5472  142.7366 C   0  0  0  0  0  0  0  0  0  0  0  0
  135.2883  151.5546  144.1699 C   0  0  0  0  0  0  0  0  0  0  0  0
  137.6618  151.0243  143.6333 C   0  0  0  0  0  0  0  0  0  0  0  0
  135.5368  152.8078  144.7005 C   0  0  0  0  0  0  0  0  0  0  0  0
  136.0915  152.8237  146.0405 C   0  0  0  0  0  0  0  0  0  0  0  0
  1  2  2  0
  1  3  1  0
  2  4  1  0
  3  5  2  0
  5  6  1  0
  4  7  2  0
  5  7  1  0
  6  8  2  0
  3  9  1  0
  8 10  1  0
  8 11  1  0
  9 11  2  0
 10 12  1  0
 12 13  1  0
M  END
$$$$

     RDKit          3D

 13 14  0  0  0  0  0  0  0  0999 V2000
  138.9995  149.7631  140.3651 C   0  0  0  0  0  0  0  0  0  0  0  0
  138.7139  149.5446  139.1245 C   0  0  0  0  0  0  0  0  0  0  0  0
  138.1832  150.1045  141.2841 C   0  0  0  0  0  0  0  0  0  0  0  0
  137.3206  149.5905  138.6810 C   0  0  0  0  0  0  0  0  0  0  0  0
  136.9836  149.1476  137.4587 O   0  0  0  0  0  0  0  0  0  0  0  0
  138.6053  150.6473  142.5904 C   0  0  0  0  0  0  0  0  0  0  0  0
  136.8415  150.3585  141.0404 C   0  0  0  0  0  0  0  0  0  0  0  0
  135.9113  150.6663  142.1137 C   0  0  0  0  0  0  0  0  0  0  0  0
  134.5600  150.6789  141.8549 C   0  0  0  0  0  0  0  0  0  0  0  0
  136.4640  149.8081  139.7314 C   0  0  0  0  0  0  0  0  0  0  0  0
  137.7097  150.8605  143.5969 C   0  0  0  0  0  0  0  0  0  0  0  0
  138.2831  151.1199  145.0496 C   0  0  0  0  0  0  0  0  0  0  0  0
  136.4048  151.0387  143.3481 C   0  0  0  0  0  0  0  0  0  0  0  0
  1  2  2  0
  1  3  1  0
  2  4  1  0
  4  5  1  0
  3  6  1  0
  3  7  2  0
  7  8  1  0
  8  9  1  0
  4 10  2  0
  7 10  1  0
  6 11  2  0
 11 12  1  0
  8 13  2  0
 11 13  1  0
M  END
$$$$

     RDKit          3D

 13 14  0  0  0  0  0  0  0  0999 V2000
  140.3037  150.2154  139.4789 Cl  0  0  0  0  0  0  0  0  0  0  0  0
  138.6781  150.1864  140.5322 C   0  0  0  0  0  0  0  0  0  0  0  0
  137.6383  149.3835  140.0932 C   0  0  0  0  0  0  0  0  0  0  0  0
  138.8659  150.7191  141.4521 C   0  0  0  0  0  0  0  0  0  0  0  0
  136.4770  149.4747  140.9574 C   0  0  0  0  0  0  0  0  0  0  0  0
  135.2970  148.9129  140.3578 C   0  0  0  0  0  0  0  0  0  0  0  0
  136.6537  150.3298  141.9841 C   0  0  0  0  0  0  0  0  0  0  0  0
  135.4964  150.4951  142.9729 C   0  0  0  0  0  0  0  0  0  0  0  0
  137.8474  150.9507  142.4197 C   0  0  0  0  0  0  0  0  0  0  0  0
  135.9211  151.2836  144.2354 C   0  0  0  0  0  0  0  0  0  0  0  0
  137.8313  151.6394  143.7846 C   0  0  0  0  0  0  0  0  0  0  0  0
  134.6888  151.4663  145.1873 C   0  0  0  0  0  0  0  0  0  0  0  0
  137.0386  151.6334  144.4125 N   0  0  0  0  0  0  0  0  0  0  0  0
  1  2  1  0
  2  3  2  0
  2  4  1  0
  3  5  1  0
  5  6  1  0
  5  7  2  0
  7  8  1  0
  4  9  2  0
  7  9  1  0
  8 10  1  0
  9 11  1  0
 10 12  1  0
 10 13  2  0
 11 13  1  0
M  END
$$$$

     RDKit          3D

 13 14  0  0  0  0  0  0  0  0999 V2000
  140.3037  150.2154  139.4789 Cl  0  0  0  0  0  0  0  0  0  0  0  0
  138.6781  150.1864  140.5322 C   0  0  0  0  0  0  0  0  0  0  0  0
  137.6383  149.3835  140.0932 C   0  0  0  0  0  0  0  0  0  0  0  0
  139.0323  150.8827  141.6188 C   0  0  0  0  0  0  0  0  0  0  0  0
  138.0466  150.8334  142.6902 C   0  0  0  0  0  0  0  0  0  0  0  0
  136.8389  150.0632  142.4017 C   0  0  0  0  0  0  0  0  0  0  0  0
  137.3721  148.8666  138.9192 C   0  0  0  0  0  0  0  0  0  0  0  0
  135.8191  150.2593  143.4713 C   0  0  0  0  0  0  0  0  0  0  0  0
  136.4102  151.2471  144.4811 C   0  0  0  0  0  0  0  0  0  0  0  0
  136.5204  149.5772  141.0732 C   0  0  0  0  0  0  0  0  0  0  0  0
  138.2821  151.2859  143.9853 C   0  0  0  0  0  0  0  0  0  0  0  0
  135.2037  151.6533  145.4625 C   0  0  0  0  0  0  0  0  0  0  0  0
  137.5386  151.5836  144.8678 C   0  0  0  0  0  0  0  0  0  0  0  0
  1  2  1  0
  2  3  2  0
  2  4  1  0
  4  5  2  0
  5  6  1  0
  3  7  1  0
  6  8  1  0
  8  9  1  0
  3 10  1  0
  6 10  2  0
  5 11  1  0
  9 12  1  0
  9 13  2  0
 11 13  1  0
M  END
$$$$

     RDKit          3D

 13 14  0  0  0  0  0  0  0  0999 V2000
  140.3037  150.2154  139.4789 Cl  0  0  0  0  0  0  0  0  0  0  0  0
  138.6781  150.1864  140.5322 C   0  0  0  0  0  0  0  0  0  0  0  0
  137.6383  149.3835  140.0932 C   0  0  0  0  0  0  0  0  0  0  0  0
  136.4381  149.4572  140.8191 C   0  0  0  0  0  0  0  0  0  0  0  0
  139.1310  150.7531  141.5085 C   0  0  0  0  0  0  0  0  0  0  0  0
  138.1124  150.7972  142.6518 C   0  0  0  0  0  0  0  0  0  0  0  0
  136.8765  150.4821  142.6413 C   0  0  0  0  0  0  0  0  0  0  0  0
  138.4674  151.5134  144.0753 C   0  0  0  0  0  0  0  0  0  0  0  0
  137.4174  151.9366  144.7466 C   0  0  0  0  0  0  0  0  0  0  0  0
  136.0263  149.9500  141.8836 C   0  0  0  0  0  0  0  0  0  0  0  0
  136.1248  150.8369  143.8924 N   0  0  0  0  0  0  0  0  0  0  0  0
  136.3389  151.4288  144.8702 C   0  0  0  0  0  0  0  0  0  0  0  0
  135.5504  151.7218  145.8947 C   0  0  0  0  0  0  0  0  0  0  0  0
  1  2  1  0
  2  3  2  0
  3  4  1  0
  2  5  1  0
  5  6  2  0
  6  7  1  0
  6  8  1  0
  8  9  1  0
  4 10  2  0
  7 10  1  0
  7 11  2  0
  9 12  1  0
 11 12  1  0
 12 13  1  0
M  END
$$$$

     RDKit          3D

 13 14  0  0  0  0  0  0  0  0999 V2000
  140.3037  150.2154  139.4789 Cl  0  0  0  0  0  0  0  0  0  0  0  0
  138.6781  150.1864  140.5322 C   0  0  0  0  0  0  0  0  0  0  0  0
  137.6383  149.3835  140.0932 C   0  0  0  0  0  0  0  0  0  0  0  0
  138.8659  150.7191  141.4521 C   0  0  0  0  0  0  0  0  0  0  0  0
  137.5320  148.8060  138.7961 C   0  0  0  0  0  0  0  0  0  0  0  0
  136.5059  149.4850  140.9714 C   0  0  0  0  0  0  0  0  0  0  0  0
  137.8418  150.8348  142.5287 C   0  0  0  0  0  0  0  0  0  0  0  0
  138.0060  151.4939  143.7934 C   0  0  0  0  0  0  0  0  0  0  0  0
  135.2480  149.0779  140.5571 C   0  0  0  0  0  0  0  0  0  0  0  0
  136.8889  151.7687  144.5361 C   0  0  0  0  0  0  0  0  0  0  0  0
  135.7248  151.1569  144.2169 C   0  0  0  0  0  0  0  0  0  0  0  0
  136.4669  150.2416  142.2400 C   0  0  0  0  0  0  0  0  0  0  0  0
  135.4482  150.5129  143.0480 C   0  0  0  0  0  0  0  0  0  0  0  0
  1  2  1  0
  2  3  2  0
  2  4  1  0
  3  5  1  0
  3  6  1  0
  4  7  2  0
  7  8  1  0
  6  9  1  0
  8 10  2  0
 10 11  1  0
  6 12  2  0
  7 12  1  0
 11 13  2  0
 12 13  1  0
M  END
$$$$

     RDKit          3D

 13 14  0  0  0  0  0  0  0  0999 V2000
  139.5547  150.5069  140.4449 C   0  0  0  0  0  0  0  0  0  0  0  0
  139.2163  150.0152  139.3729 C   0  0  0  0  0  0  0  0  0  0  0  0
  138.8578  150.3067  141.5860 C   0  0  0  0  0  0  0  0  0  0  0  0
  137.9790  149.2997  139.2383 C   0  0  0  0  0  0  0  0  0  0  0  0
  139.3342  150.9311  142.8842 C   0  0  0  0  0  0  0  0  0  0  0  0
  138.3151  151.4956  143.6096 C   0  0  0  0  0  0  0  0  0  0  0  0
  137.0061  151.1297  143.2686 C   0  0  0  0  0  0  0  0  0  0  0  0
  137.0856  149.5087  140.1488 C   0  0  0  0  0  0  0  0  0  0  0  0
  135.6479  149.2461  140.0543 C   0  0  0  0  0  0  0  0  0  0  0  0
  137.4336  150.0741  141.4796 C   0  0  0  0  0  0  0  0  0  0  0  0
  136.0183  151.5782  144.3482 C   0  0  0  0  0  0  0  0  0  0  0  0
  136.6970  150.3107  142.2925 N   0  0  0  0  0  0  0  0  0  0  0  0
  136.3185  152.1460  145.2610 O   0  0  0  0  0  0  0  0  0  0  0  0
  1  2  2  0
  1  3  1  0
  2  4  1  0
  3  5  1  0
  5  6  2  0
  6  7  1  0
  4  8  2  0
  8  9  1  0
  3 10  2  0
  8 10  1  0
  7 11  1  0
  7 12  2  0
 10 12  1  0
 11 13  2  0
M  END
$$$$

     RDKit          3D

 13 14  0  0  0  0  0  0  0  0999 V2000
  140.3037  150.2154  139.4789 Cl  0  0  0  0  0  0  0  0  0  0  0  0
  138.6781  150.1864  140.5322 C   0  0  0  0  0  0  0  0  0  0  0  0
  137.6383  149.3835  140.0932 C   0  0  0  0  0  0  0  0  0  0  0  0
  138.8659  150.7191  141.4521 C   0  0  0  0  0  0  0  0  0  0  0  0
  136.4770  149.4747  140.9574 C   0  0  0  0  0  0  0  0  0  0  0  0
  135.2970  148.9129  140.3578 C   0  0  0  0  0  0  0  0  0  0  0  0
  136.6537  150.3298  141.9841 C   0  0  0  0  0  0  0  0  0  0  0  0
  135.4964  150.4951  142.9729 C   0  0  0  0  0  0  0  0  0  0  0  0
  137.8474  150.9507  142.4197 C   0  0  0  0  0  0  0  0  0  0  0  0
  135.9211  151.2836  144.2354 C   0  0  0  0  0  0  0  0  0  0  0  0
  137.1871  151.2662  144.5844 C   0  0  0  0  0  0  0  0  0  0  0  0
  134.9575  151.8006  145.1352 C   0  0  0  0  0  0  0  0  0  0  0  0
  138.2955  151.3916  143.7196 C   0  0  0  0  0  0  0  0  0  0  0  0
  1  2  1  0
  2  3  2  0
  2  4  1  0
  3  5  1  0
  5  6  1  0
  5  7  2  0
  7  8  1  0
  4  9  2  0
  7  9  1  0
  8 10  1  0
 10 11  2  0
 10 12  1  0
  9 13  1  0
 11 13  1  0
M  END
$$$$

     RDKit          3D

 13 14  0  0  0  0  0  0  0  0999 V2000
  140.3037  150.2154  139.4789 Cl  0  0  0  0  0  0  0  0  0  0  0  0
  138.6781  150.1864  140.5322 C   0  0  0  0  0  0  0  0  0  0  0  0
  137.6383  149.3835  140.0932 C   0  0  0  0  0  0  0  0  0  0  0  0
  139.2398  150.7167  141.5765 C   0  0  0  0  0  0  0  0  0  0  0  0
  138.2210  150.6933  142.6926 C   0  0  0  0  0  0  0  0  0  0  0  0
  138.5246  151.2961  144.0072 C   0  0  0  0  0  0  0  0  0  0  0  0
  137.5101  151.9933  144.4824 C   0  0  0  0  0  0  0  0  0  0  0  0
  136.4881  151.8084  144.2255 C   0  0  0  0  0  0  0  0  0  0  0  0
  136.0392  151.0836  143.2176 C   0  0  0  0  0  0  0  0  0  0  0  0
  136.5439  149.9760  140.3763 C   0  0  0  0  0  0  0  0  0  0  0  0
  136.8352  150.5644  142.4546 C   0  0  0  0  0  0  0  0  0  0  0  0
  136.2213  150.0964  141.3217 N   0  0  0  0  0  0  0  0  0  0  0  0
  135.0341  152.4794  145.1822 Cl  0  0  0  0  0  0  0  0  0  0  0  0
  1  2  1  0
  2  3  1  0
  2  4  2  0
  4  5  1  0
  5  6  1  0
  6  7  2  0
  7  8  1  0
  8  9  2  0
  3 10  2  0
  5 11  2  0
  9 11  1  0
 10 12  1  0
 11 12  1  0
  8 13  1  0
M  END
$$$$

     RDKit          3D

 13 14  0  0  0  0  0  0  0  0999 V2000
  139.5547  150.5069  140.4449 C   0  0  0  0  0  0  0  0  0  0  0  0
  139.2163  150.0152  139.3729 C   0  0  0  0  0  0  0  0  0  0  0  0
  138.8578  150.3067  141.5860 C   0  0  0  0  0  0  0  0  0  0  0  0
  137.9790  149.2997  139.2383 C   0  0  0  0  0  0  0  0  0  0  0  0
  139.3342  150.9311  142.8842 C   0  0  0  0  0  0  0  0  0  0  0  0
  138.3151  151.4956  143.6096 C   0  0  0  0  0  0  0  0  0  0  0  0
  137.0061  151.1297  143.2686 C   0  0  0  0  0  0  0  0  0  0  0  0
  137.5336  148.7786  138.0874 C   0  0  0  0  0  0  0  0  0  0  0  0
  135.9954  151.6198  144.2464 C   0  0  0  0  0  0  0  0  0  0  0  0
  137.1883  149.3629  140.4557 C   0  0  0  0  0  0  0  0  0  0  0  0
  137.6617  150.0163  141.5935 C   0  0  0  0  0  0  0  0  0  0  0  0
  136.6912  150.2089  142.3538 N   0  0  0  0  0  0  0  0  0  0  0  0
  136.2542  152.1569  145.2713 O   0  0  0  0  0  0  0  0  0  0  0  0
  1  2  2  0
  1  3  1  0
  2  4  1  0
  3  5  1  0
  5  6  2  0
  6  7  1  0
  4  8  1  0
  7  9  1  0
  4 10  2  0
  3 11  2  0
 10 11  1  0
  7 12  2  0
 11 12  1  0
  9 13  2  0
M  END
$$$$

     RDKit          3D

 13 14  0  0  0  0  0  0  0  0999 V2000
  140.3037  150.2154  139.4789 Cl  0  0  0  0  0  0  0  0  0  0  0  0
  138.6781  150.1864  140.5322 C   0  0  0  0  0  0  0  0  0  0  0  0
  137.6383  149.3835  140.0932 C   0  0  0  0  0  0  0  0  0  0  0  0
  136.4381  149.4572  140.8191 C   0  0  0  0  0  0  0  0  0  0  0  0
  139.1310  150.7531  141.5085 C   0  0  0  0  0  0  0  0  0  0  0  0
  138.1124  150.7972  142.6518 C   0  0  0  0  0  0  0  0  0  0  0  0
  136.8765  150.4821  142.6413 C   0  0  0  0  0  0  0  0  0  0  0  0
  138.4674  151.5134  144.0753 C   0  0  0  0  0  0  0  0  0  0  0  0
  137.4174  151.9366  144.7466 C   0  0  0  0  0  0  0  0  0  0  0  0
  136.1039  150.0460  141.8346 C   0  0  0  0  0  0  0  0  0  0  0  0
  136.1939  150.7691  143.9056 C   0  0  0  0  0  0  0  0  0  0  0  0
  136.3279  151.3970  144.9903 C   0  0  0  0  0  0  0  0  0  0  0  0
  135.4890  152.0881  146.0055 C   0  0  0  0  0  0  0  0  0  0  0  0
  1  2  1  0
  2  3  2  0
  3  4  1  0
  2  5  1  0
  5  6  2  0
  6  7  1  0
  6  8  1  0
  8  9  1  0
  4 10  2  0
  7 10  1  0
  7 11  1  0
  9 12  1  0
 11 12  2  0
 12 13  1  0
M  END
$$$$

     RDKit          3D

 13 14  0  0  0  0  0  0  0  0999 V2000
  140.3037  150.2154  139.4789 Cl  0  0  0  0  0  0  0  0  0  0  0  0
  138.6781  150.1864  140.5322 C   0  0  0  0  0  0  0  0  0  0  0  0
  137.6383  149.3835  140.0932 C   0  0  0  0  0  0  0  0  0  0  0  0
  138.7726  150.9278  141.6514 C   0  0  0  0  0  0  0  0  0  0  0  0
  137.6838  150.8829  142.5424 C   0  0  0  0  0  0  0  0  0  0  0  0
  137.6728  148.8765  138.7108 C   0  0  0  0  0  0  0  0  0  0  0  0
  137.8328  151.4161  143.9059 C   0  0  0  0  0  0  0  0  0  0  0  0
  136.7259  151.6711  144.7363 C   0  0  0  0  0  0  0  0  0  0  0  0
  135.5207  151.1553  144.1970 C   0  0  0  0  0  0  0  0  0  0  0  0
  136.4786  149.6017  140.7705 C   0  0  0  0  0  0  0  0  0  0  0  0
  135.2284  149.1054  140.3364 C   0  0  0  0  0  0  0  0  0  0  0  0
  136.3554  150.3569  142.3565 C   0  0  0  0  0  0  0  0  0  0  0  0
  135.4520  150.6803  143.0425 N   0  0  0  0  0  0  0  0  0  0  0  0
  1  2  1  0
  2  3  1  0
  2  4  2  0
  4  5  1  0
  3  6  1  0
  5  7  1  0
  7  8  2  0
  8  9  1  0
  3 10  2  0
 10 11  1  0
  5 12  2  0
 10 12  1  0
  9 13  2  0
 12 13  1  0
M  END
$$$$

     RDKit          3D

 13 14  0  0  0  0  0  0  0  0999 V2000
  140.3037  150.2154  139.4789 Cl  0  0  0  0  0  0  0  0  0  0  0  0
  138.6781  150.1864  140.5322 C   0  0  0  0  0  0  0  0  0  0  0  0
  137.6383  149.3835  140.0932 C   0  0  0  0  0  0  0  0  0  0  0  0
  136.4381  149.4572  140.8191 C   0  0  0  0  0  0  0  0  0  0  0  0
  139.1310  150.7531  141.5085 C   0  0  0  0  0  0  0  0  0  0  0  0
  138.1124  150.7972  142.6518 C   0  0  0  0  0  0  0  0  0  0  0  0
  136.8765  150.4821  142.6413 C   0  0  0  0  0  0  0  0  0  0  0  0
  138.4674  151.5134  144.0753 C   0  0  0  0  0  0  0  0  0  0  0  0
  137.4174  151.9366  144.7466 C   0  0  0  0  0  0  0  0  0  0  0  0
  136.0263  149.9500  141.8836 C   0  0  0  0  0  0  0  0  0  0  0  0
  136.4667  151.3245  144.4030 C   0  0  0  0  0  0  0  0  0  0  0  0
  135.3052  151.5460  145.6103 C   0  0  0  0  0  0  0  0  0  0  0  0
  135.9479  150.6394  143.4655 N   0  0  0  0  0  0  0  0  0  0  0  0
  1  2  1  0
  2  3  2  0
  3  4  1  0
  2  5  1  0
  5  6  2  0
  6  7  1  0
  6  8  1  0
  8  9  1  0
  4 10  2  0
  7 10  1  0
  9 11  1  0
 11 12  1  0
  7 13  1  0
 11 13  1  0
M  END
$$$$

     RDKit          3D

 13 13  0  0  0  0  0  0  0  0999 V2000
  140.3037  150.2154  139.4789 Cl  0  0  0  0  0  0  0  0  0  0  0  0
  138.6781  150.1864  140.5322 C   0  0  0  0  0  0  0  0  0  0  0  0
  137.6383  149.3835  140.0932 C   0  0  0  0  0  0  0  0  0  0  0  0
  136.4381  149.4572  140.8191 C   0  0  0  0  0  0  0  0  0  0  0  0
  138.9816  150.6968  141.6825 C   0  0  0  0  0  0  0  0  0  0  0  0
  138.2341  150.9034  142.4750 C   0  0  0  0  0  0  0  0  0  0  0  0
  136.4439  150.2812  142.0724 C   0  0  0  0  0  0  0  0  0  0  0  0
  137.0950  150.7955  142.8441 C   0  0  0  0  0  0  0  0  0  0  0  0
  136.3991  151.2262  144.2141 C   0  0  0  0  0  0  0  0  0  0  0  0
  135.1968  151.7978  144.2197 C   0  0  0  0  0  0  0  0  0  0  0  0
  137.1707  150.8734  145.2220 C   0  0  0  0  0  0  0  0  0  0  0  0
  134.6058  152.1020  145.5934 C   0  0  0  0  0  0  0  0  0  0  0  0
  134.3434  153.2370  145.9619 C   0  0  0  0  0  0  0  0  0  0  0  0
  1  2  1  0
  2  3  2  0
  3  4  1  0
  2  5  1  0
  5  6  2  0
  4  7  2  0
  6  8  1  0
  7  8  1  0
  8  9  1  0
  9 10  2  3
  9 11  1  0
 10 12  1  0
 12 13  1  0
M  END
$$$$

     RDKit          3D

 13 14  0  0  0  0  0  0  0  0999 V2000
  140.3037  150.2154  139.4789 Cl  0  0  0  0  0  0  0  0  0  0  0  0
  138.6781  150.1864  140.5322 C   0  0  0  0  0  0  0  0  0  0  0  0
  137.6383  149.3835  140.0932 C   0  0  0  0  0  0  0  0  0  0  0  0
  138.8659  150.7191  141.4521 C   0  0  0  0  0  0  0  0  0  0  0  0
  136.5657  149.5899  140.7699 C   0  0  0  0  0  0  0  0  0  0  0  0
  136.4133  150.3723  141.9098 C   0  0  0  0  0  0  0  0  0  0  0  0
  135.2492  150.5994  142.7383 C   0  0  0  0  0  0  0  0  0  0  0  0
  135.5657  151.2833  144.0142 C   0  0  0  0  0  0  0  0  0  0  0  0
  137.7156  150.9755  142.4209 C   0  0  0  0  0  0  0  0  0  0  0  0
  137.7863  151.6406  143.6478 C   0  0  0  0  0  0  0  0  0  0  0  0
  136.6947  151.7655  144.4590 C   0  0  0  0  0  0  0  0  0  0  0  0
  136.8133  152.4596  145.7353 C   0  0  0  0  0  0  0  0  0  0  0  0
  135.5556  152.9166  146.4083 C   0  0  0  0  0  0  0  0  0  0  0  0
  1  2  1  0
  2  3  2  0
  2  4  1  0
  3  5  1  0
  5  6  2  0
  6  7  1  0
  7  8  2  0
  4  9  2  0
  6  9  1  0
  9 10  1  0
  8 11  1  0
 10 11  2  0
 11 12  1  0
 12 13  1  0
M  END
$$$$

     RDKit          3D

 13 14  0  0  0  0  0  0  0  0999 V2000
  140.3037  150.2154  139.4789 Cl  0  0  0  0  0  0  0  0  0  0  0  0
  138.6781  150.1864  140.5322 C   0  0  0  0  0  0  0  0  0  0  0  0
  137.6383  149.3835  140.0932 C   0  0  0  0  0  0  0  0  0  0  0  0
  138.8659  150.7191  141.4521 C   0  0  0  0  0  0  0  0  0  0  0  0
  138.3205  150.9402  142.2995 C   0  0  0  0  0  0  0  0  0  0  0  0
  136.6328  149.6178  140.7913 C   0  0  0  0  0  0  0  0  0  0  0  0
  135.2653  149.2034  140.3255 C   0  0  0  0  0  0  0  0  0  0  0  0
  138.5419  151.6237  143.7074 C   0  0  0  0  0  0  0  0  0  0  0  0
  137.5348  151.9408  144.4598 C   0  0  0  0  0  0  0  0  0  0  0  0
  136.2762  151.4477  144.1630 C   0  0  0  0  0  0  0  0  0  0  0  0
  136.0020  150.6725  142.9640 C   0  0  0  0  0  0  0  0  0  0  0  0
  136.8424  150.4523  141.9169 C   0  0  0  0  0  0  0  0  0  0  0  0
  135.2797  151.7892  145.0284 O   0  0  0  0  0  0  0  0  0  0  0  0
  1  2  1  0
  2  3  2  0
  2  4  1  0
  4  5  2  0
  3  6  1  0
  6  7  1  0
  5  8  1  0
  8  9  2  0
  9 10  1  0
 10 11  1  0
  5 12  1  0
  6 12  2  0
 11 12  1  0
 10 13  2  0
M  END
$$$$

     RDKit          3D

 13 14  0  0  0  0  0  0  0  0999 V2000
  139.3434  149.9921  140.5876 C   0  0  0  0  0  0  0  0  0  0  0  0
  138.9518  149.9236  139.3657 C   0  0  0  0  0  0  0  0  0  0  0  0
  138.6168  150.1115  141.6414 C   0  0  0  0  0  0  0  0  0  0  0  0
  137.1898  149.8671  141.8329 C   0  0  0  0  0  0  0  0  0  0  0  0
  136.5148  149.7637  140.5812 C   0  0  0  0  0  0  0  0  0  0  0  0
  139.1786  150.4016  143.1316 C   0  0  0  0  0  0  0  0  0  0  0  0
  138.3339  151.1454  143.8950 C   0  0  0  0  0  0  0  0  0  0  0  0
  136.9941  151.0549  143.8223 C   0  0  0  0  0  0  0  0  0  0  0  0
  136.3317  150.3439  142.8413 C   0  0  0  0  0  0  0  0  0  0  0  0
  136.1753  151.7170  145.0692 C   0  0  0  0  0  0  0  0  0  0  0  0
  135.2464  149.4942  140.4339 C   0  0  0  0  0  0  0  0  0  0  0  0
  134.8817  151.5909  145.0422 C   0  0  0  0  0  0  0  0  0  0  0  0
  137.4668  149.6925  139.3545 C   0  0  0  0  0  0  0  0  0  0  0  0
  1  2  2  0
  1  3  1  0
  3  4  1  0
  4  5  2  0
  3  6  1  0
  6  7  2  0
  7  8  1  0
  4  9  1  0
  8  9  2  0
  8 10  1  0
  5 11  1  0
 10 12  2  0
  2 13  1  0
  5 13  1  0
M  END
$$$$

     RDKit          3D

 13 14  0  0  0  0  0  0  0  0999 V2000
  140.3037  150.2154  139.4789 Cl  0  0  0  0  0  0  0  0  0  0  0  0
  138.6781  150.1864  140.5322 C   0  0  0  0  0  0  0  0  0  0  0  0
  137.6383  149.3835  140.0932 C   0  0  0  0  0  0  0  0  0  0  0  0
  138.8659  150.7191  141.4521 C   0  0  0  0  0  0  0  0  0  0  0  0
  136.4770  149.4747  140.9574 C   0  0  0  0  0  0  0  0  0  0  0  0
  135.2970  148.9129  140.3578 C   0  0  0  0  0  0  0  0  0  0  0  0
  136.6537  150.3298  141.9841 C   0  0  0  0  0  0  0  0  0  0  0  0
  135.4964  150.4951  142.9729 C   0  0  0  0  0  0  0  0  0  0  0  0
  136.0374  151.3461  144.1549 C   0  0  0  0  0  0  0  0  0  0  0  0
  137.8724  151.0001  142.4107 C   0  0  0  0  0  0  0  0  0  0  0  0
  135.1061  151.6912  145.2158 C   0  0  0  0  0  0  0  0  0  0  0  0
  135.5405  152.7689  146.0991 C   0  0  0  0  0  0  0  0  0  0  0  0
  137.9459  151.7082  143.7198 C   0  0  0  0  0  0  0  0  0  0  0  0
  1  2  1  0
  2  3  2  0
  2  4  1  0
  3  5  1  0
  5  6  1  0
  5  7  2  0
  7  8  1  0
  8  9  2  0
  4 10  2  0
  7 10  1  0
  9 11  1  0
 11 12  1  0
  9 13  1  0
 10 13  1  0
M  END
$$$$

     RDKit          3D

 13 14  0  0  0  0  0  0  0  0999 V2000
  140.3037  150.2154  139.4789 Cl  0  0  0  0  0  0  0  0  0  0  0  0
  138.6781  150.1864  140.5322 C   0  0  0  0  0  0  0  0  0  0  0  0
  137.6383  149.3835  140.0932 C   0  0  0  0  0  0  0  0  0  0  0  0
  139.0323  150.8827  141.6188 C   0  0  0  0  0  0  0  0  0  0  0  0
  136.4854  149.4748  141.0069 C   0  0  0  0  0  0  0  0  0  0  0  0
  136.6936  150.4331  141.9090 C   0  0  0  0  0  0  0  0  0  0  0  0
  135.4547  150.7046  142.8858 C   0  0  0  0  0  0  0  0  0  0  0  0
  135.9649  151.2433  144.1628 C   0  0  0  0  0  0  0  0  0  0  0  0
  137.9198  151.0739  142.4092 C   0  0  0  0  0  0  0  0  0  0  0  0
  135.0153  151.5651  145.2072 C   0  0  0  0  0  0  0  0  0  0  0  0
  137.2104  151.7381  144.2068 C   0  0  0  0  0  0  0  0  0  0  0  0
  138.2844  151.6709  143.2252 N   0  0  0  0  0  0  0  0  0  0  0  0
  135.1910  152.6826  145.9783 N   0  0  0  0  0  0  0  0  0  0  0  0
  1  2  1  0
  2  3  2  0
  2  4  1  0
  3  5  1  0
  5  6  2  0
  6  7  1  0
  7  8  2  0
  4  9  2  0
  6  9  1  0
  8 10  1  0
  8 11  1  0
  9 12  1  0
 11 12  2  0
 10 13  1  0
M  END
$$$$

     RDKit          3D

 13 14  0  0  0  0  0  0  0  0999 V2000
  138.9995  149.7631  140.3651 C   0  0  0  0  0  0  0  0  0  0  0  0
  138.7139  149.5446  139.1245 C   0  0  0  0  0  0  0  0  0  0  0  0
  138.1832  150.1045  141.2841 C   0  0  0  0  0  0  0  0  0  0  0  0
  137.3206  149.5905  138.6810 C   0  0  0  0  0  0  0  0  0  0  0  0
  136.9836  149.1476  137.4587 O   0  0  0  0  0  0  0  0  0  0  0  0
  138.6053  150.6473  142.5904 C   0  0  0  0  0  0  0  0  0  0  0  0
  136.8415  150.3585  141.0404 C   0  0  0  0  0  0  0  0  0  0  0  0
  135.9113  150.6663  142.1137 C   0  0  0  0  0  0  0  0  0  0  0  0
  136.3384  149.9012  139.7731 C   0  0  0  0  0  0  0  0  0  0  0  0
  136.4545  151.0761  143.3350 C   0  0  0  0  0  0  0  0  0  0  0  0
  140.0518  150.6026  142.9625 C   0  0  0  0  0  0  0  0  0  0  0  0
  135.4655  151.4979  144.4505 C   0  0  0  0  0  0  0  0  0  0  0  0
  137.8239  150.9965  143.6267 C   0  0  0  0  0  0  0  0  0  0  0  0
  1  2  2  0
  1  3  1  0
  2  4  1  0
  4  5  1  0
  3  6  1  0
  3  7  2  0
  7  8  1  0
  4  9  2  0
  7  9  1  0
  8 10  2  0
  6 11  1  0
 10 12  1  0
  6 13  2  0
 10 13  1  0
M  END
$$$$

     RDKit          3D

 13 14  0  0  0  0  0  0  0  0999 V2000
  140.3037  150.2154  139.4789 Cl  0  0  0  0  0  0  0  0  0  0  0  0
  138.6781  150.1864  140.5322 C   0  0  0  0  0  0  0  0  0  0  0  0
  137.6383  149.3835  140.0932 C   0  0  0  0  0  0  0  0  0  0  0  0
  138.8659  150.7191  141.4521 C   0  0  0  0  0  0  0  0  0  0  0  0
  136.4770  149.4747  140.9574 C   0  0  0  0  0  0  0  0  0  0  0  0
  138.0381  150.9313  142.3784 C   0  0  0  0  0  0  0  0  0  0  0  0
  138.2044  151.6697  143.6804 C   0  0  0  0  0  0  0  0  0  0  0  0
  137.2146  151.8778  144.5544 C   0  0  0  0  0  0  0  0  0  0  0  0
  136.6685  150.3000  142.1258 C   0  0  0  0  0  0  0  0  0  0  0  0
  136.0046  151.3612  144.4594 C   0  0  0  0  0  0  0  0  0  0  0  0
  135.5347  150.6215  143.1138 C   0  0  0  0  0  0  0  0  0  0  0  0
  135.2364  152.0912  145.3994 C   0  0  0  0  0  0  0  0  0  0  0  0
  135.7950  152.6207  146.3446 O   0  0  0  0  0  0  0  0  0  0  0  0
  1  2  1  0
  2  3  2  0
  2  4  1  0
  3  5  1  0
  4  6  2  0
  6  7  1  0
  7  8  2  0
  5  9  2  0
  6  9  1  0
  8 10  1  0
  9 11  1  0
 10 11  1  0
 10 12  1  0
 12 13  1  0
M  END
$$$$

     RDKit          3D

 13 14  0  0  0  0  0  0  0  0999 V2000
  139.5547  150.5069  140.4449 C   0  0  0  0  0  0  0  0  0  0  0  0
  139.2163  150.0152  139.3729 C   0  0  0  0  0  0  0  0  0  0  0  0
  138.8578  150.3067  141.5860 C   0  0  0  0  0  0  0  0  0  0  0  0
  139.2256  150.3492  142.8903 C   0  0  0  0  0  0  0  0  0  0  0  0
  138.5566  151.2848  143.6742 C   0  0  0  0  0  0  0  0  0  0  0  0
  137.8562  149.4560  139.3195 C   0  0  0  0  0  0  0  0  0  0  0  0
  137.4734  151.5824  143.4210 C   0  0  0  0  0  0  0  0  0  0  0  0
  137.4481  150.1790  141.6418 C   0  0  0  0  0  0  0  0  0  0  0  0
  136.6101  152.4735  144.2788 C   0  0  0  0  0  0  0  0  0  0  0  0
  135.5614  152.0148  145.0671 C   0  0  0  0  0  0  0  0  0  0  0  0
  136.7920  149.8116  140.2490 C   0  0  0  0  0  0  0  0  0  0  0  0
  136.6853  150.8841  142.4605 N   0  0  0  0  0  0  0  0  0  0  0  0
  134.8640  152.9357  145.9422 C   0  0  0  0  0  0  0  0  0  0  0  0
  1  2  2  0
  1  3  1  0
  3  4  1  0
  4  5  2  0
  2  6  1  0
  5  7  1  0
  3  8  2  0
  7  9  1  0
  9 10  1  0
  6 11  2  0
  8 11  1  0
  7 12  2  0
  8 12  1  0
 10 13  1  0
M  END
$$$$

     RDKit          3D

 13 14  0  0  0  0  0  0  0  0999 V2000
  140.3037  150.2154  139.4789 Cl  0  0  0  0  0  0  0  0  0  0  0  0
  138.6781  150.1864  140.5322 C   0  0  0  0  0  0  0  0  0  0  0  0
  137.6383  149.3835  140.0932 C   0  0  0  0  0  0  0  0  0  0  0  0
  138.8659  150.7191  141.4521 C   0  0  0  0  0  0  0  0  0  0  0  0
  136.4770  149.4747  140.9574 C   0  0  0  0  0  0  0  0  0  0  0  0
  135.2970  148.9129  140.3578 C   0  0  0  0  0  0  0  0  0  0  0  0
  136.6537  150.3298  141.9841 C   0  0  0  0  0  0  0  0  0  0  0  0
  135.4964  150.4951  142.9729 C   0  0  0  0  0  0  0  0  0  0  0  0
  136.0374  151.3461  144.1549 C   0  0  0  0  0  0  0  0  0  0  0  0
  137.8724  151.0001  142.4107 C   0  0  0  0  0  0  0  0  0  0  0  0
  135.1061  151.6912  145.2158 C   0  0  0  0  0  0  0  0  0  0  0  0
  138.1526  151.7876  143.5845 C   0  0  0  0  0  0  0  0  0  0  0  0
  137.2583  151.8636  144.4390 C   0  0  0  0  0  0  0  0  0  0  0  0
  1  2  1  0
  2  3  2  0
  2  4  1  0
  3  5  1  0
  5  6  1  0
  5  7  2  0
  7  8  1  0
  8  9  2  0
  4 10  2  0
  7 10  1  0
  9 11  1  0
 10 12  1  0
  9 13  1  0
 12 13  2  0
M  END
$$$$

     RDKit          3D

 13 14  0  0  0  0  0  0  0  0999 V2000
  140.3037  150.2154  139.4789 Cl  0  0  0  0  0  0  0  0  0  0  0  0
  138.6781  150.1864  140.5322 C   0  0  0  0  0  0  0  0  0  0  0  0
  137.6383  149.3835  140.0932 C   0  0  0  0  0  0  0  0  0  0  0  0
  139.0323  150.8827  141.6188 C   0  0  0  0  0  0  0  0  0  0  0  0
  138.0466  150.8334  142.6902 C   0  0  0  0  0  0  0  0  0  0  0  0
  136.8389  150.0632  142.4017 C   0  0  0  0  0  0  0  0  0  0  0  0
  137.3721  148.8666  138.9192 C   0  0  0  0  0  0  0  0  0  0  0  0
  135.8191  150.2593  143.4713 C   0  0  0  0  0  0  0  0  0  0  0  0
  136.4102  151.2471  144.4811 C   0  0  0  0  0  0  0  0  0  0  0  0
  136.4192  149.5096  141.1554 C   0  0  0  0  0  0  0  0  0  0  0  0
  138.2681  151.4245  143.9892 C   0  0  0  0  0  0  0  0  0  0  0  0
  136.0785  151.8233  145.6539 C   0  0  0  0  0  0  0  0  0  0  0  0
  134.6986  152.1773  145.7099 C   0  0  0  0  0  0  0  0  0  0  0  0
  1  2  1  0
  2  3  2  0
  2  4  1  0
  4  5  2  0
  5  6  1  0
  3  7  1  0
  6  8  1  0
  8  9  1  0
  3 10  1  0
  6 10  2  0
  5 11  1  0
  9 11  2  0
  9 12  1  0
 12 13  1  0
M  END
$$$$

     RDKit          3D

 13 14  0  0  0  0  0  0  0  0999 V2000
  139.3434  149.9921  140.5876 C   0  0  0  0  0  0  0  0  0  0  0  0
  138.9518  149.9236  139.3657 C   0  0  0  0  0  0  0  0  0  0  0  0
  138.6168  150.1115  141.6414 C   0  0  0  0  0  0  0  0  0  0  0  0
  137.1898  149.8671  141.8329 C   0  0  0  0  0  0  0  0  0  0  0  0
  136.5148  149.7637  140.5812 C   0  0  0  0  0  0  0  0  0  0  0  0
  139.1786  150.4016  143.1316 C   0  0  0  0  0  0  0  0  0  0  0  0
  138.3339  151.1454  143.8950 C   0  0  0  0  0  0  0  0  0  0  0  0
  136.9941  151.0549  143.8223 C   0  0  0  0  0  0  0  0  0  0  0  0
  139.7963  149.9608  138.2189 C   0  0  0  0  0  0  0  0  0  0  0  0
  137.4289  149.6958  139.2642 C   0  0  0  0  0  0  0  0  0  0  0  0
  136.2228  151.5424  144.9686 C   0  0  0  0  0  0  0  0  0  0  0  0
  135.1720  152.4168  144.7941 C   0  0  0  0  0  0  0  0  0  0  0  0
  136.4115  150.3674  142.7371 N   0  0  0  0  0  0  0  0  0  0  0  0
  1  2  2  0
  1  3  1  0
  3  4  1  0
  4  5  2  0
  3  6  1  0
  6  7  2  0
  7  8  1  0
  2  9  1  0
  2 10  1  0
  5 10  1  0
  8 11  1  0
 11 12  1  0
  4 13  1  0
  8 13  2  0
M  END
$$$$

     RDKit          3D

 13 14  0  0  0  0  0  0  0  0999 V2000
  140.3037  150.2154  139.4789 Cl  0  0  0  0  0  0  0  0  0  0  0  0
  138.6781  150.1864  140.5322 C   0  0  0  0  0  0  0  0  0  0  0  0
  137.6383  149.3835  140.0932 C   0  0  0  0  0  0  0  0  0  0  0  0
  139.0323  150.8827  141.6188 C   0  0  0  0  0  0  0  0  0  0  0  0
  136.4854  149.4748  141.0069 C   0  0  0  0  0  0  0  0  0  0  0  0
  135.2458  148.9977  140.4692 C   0  0  0  0  0  0  0  0  0  0  0  0
  136.7840  150.4342  141.8404 C   0  0  0  0  0  0  0  0  0  0  0  0
  135.5883  150.7248  142.8957 C   0  0  0  0  0  0  0  0  0  0  0  0
  136.2040  151.5704  144.0279 C   0  0  0  0  0  0  0  0  0  0  0  0
  135.7313  152.4133  144.8107 C   0  0  0  0  0  0  0  0  0  0  0  0
  138.0169  151.0440  142.3165 C   0  0  0  0  0  0  0  0  0  0  0  0
  138.0504  151.7206  143.7255 C   0  0  0  0  0  0  0  0  0  0  0  0
  136.2083  152.4471  146.2793 C   0  0  0  0  0  0  0  0  0  0  0  0
  1  2  1  0
  2  3  2  0
  2  4  1  0
  3  5  1  0
  5  6  1  0
  5  7  2  0
  7  8  1  0
  8  9  1  0
  9 10  2  3
  4 11  2  0
  7 11  1  0
  9 12  1  0
 11 12  1  0
 10 13  1  0
M  END
$$$$

     RDKit          3D

 13 14  0  0  0  0  0  0  0  0999 V2000
  140.3037  150.2154  139.4789 Cl  0  0  0  0  0  0  0  0  0  0  0  0
  138.6781  150.1864  140.5322 C   0  0  0  0  0  0  0  0  0  0  0  0
  137.6383  149.3835  140.0932 C   0  0  0  0  0  0  0  0  0  0  0  0
  138.8659  150.7191  141.4521 C   0  0  0  0  0  0  0  0  0  0  0  0
  136.5657  149.5899  140.7699 C   0  0  0  0  0  0  0  0  0  0  0  0
  136.4133  150.3723  141.9098 C   0  0  0  0  0  0  0  0  0  0  0  0
  135.2492  150.5994  142.7383 C   0  0  0  0  0  0  0  0  0  0  0  0
  135.5657  151.2833  144.0142 C   0  0  0  0  0  0  0  0  0  0  0  0
  137.7156  150.9755  142.4209 C   0  0  0  0  0  0  0  0  0  0  0  0
  137.7863  151.6406  143.6478 C   0  0  0  0  0  0  0  0  0  0  0  0
  134.2964  151.5073  144.8982 C   0  0  0  0  0  0  0  0  0  0  0  0
  136.7908  151.7876  144.5201 C   0  0  0  0  0  0  0  0  0  0  0  0
  137.0268  152.3911  145.7130 C   0  0  0  0  0  0  0  0  0  0  0  0
  1  2  1  0
  2  3  2  0
  2  4  1  0
  3  5  1  0
  5  6  2  0
  6  7  1  0
  7  8  2  0
  4  9  2  0
  6  9  1  0
  9 10  1  0
  8 11  1  0
  8 12  1  0
 10 12  1  0
 12 13  2  0
M  END
$$$$

     RDKit          3D

 13 14  0  0  0  0  0  0  0  0999 V2000
  139.3434  149.9921  140.5876 C   0  0  0  0  0  0  0  0  0  0  0  0
  138.9518  149.9236  139.3657 C   0  0  0  0  0  0  0  0  0  0  0  0
  138.6168  150.1115  141.6414 C   0  0  0  0  0  0  0  0  0  0  0  0
  137.1898  149.8671  141.8329 C   0  0  0  0  0  0  0  0  0  0  0  0
  136.5148  149.7637  140.5812 C   0  0  0  0  0  0  0  0  0  0  0  0
  139.1786  150.4016  143.1316 C   0  0  0  0  0  0  0  0  0  0  0  0
  138.3339  151.1454  143.8950 C   0  0  0  0  0  0  0  0  0  0  0  0
  135.0990  149.6698  140.3675 C   0  0  0  0  0  0  0  0  0  0  0  0
  137.0328  151.0212  144.0393 C   0  0  0  0  0  0  0  0  0  0  0  0
  137.3963  149.6933  139.3497 C   0  0  0  0  0  0  0  0  0  0  0  0
  136.3084  151.4469  145.1657 C   0  0  0  0  0  0  0  0  0  0  0  0
  136.4270  150.2582  142.9886 N   0  0  0  0  0  0  0  0  0  0  0  0
  136.7409  151.7610  146.3056 O   0  0  0  0  0  0  0  0  0  0  0  0
  1  2  2  0
  1  3  1  0
  3  4  1  0
  4  5  2  0
  3  6  1  0
  6  7  2  0
  5  8  1  0
  7  9  1  0
  2 10  1  0
  5 10  1  0
  9 11  1  0
  4 12  1  0
  9 12  2  0
 11 13  2  0
M  END
$$$$

     RDKit          3D

 13 14  0  0  0  0  0  0  0  0999 V2000
  139.5547  150.5069  140.4449 C   0  0  0  0  0  0  0  0  0  0  0  0
  139.2163  150.0152  139.3729 C   0  0  0  0  0  0  0  0  0  0  0  0
  138.8578  150.3067  141.5860 C   0  0  0  0  0  0  0  0  0  0  0  0
  137.9790  149.2997  139.2383 C   0  0  0  0  0  0  0  0  0  0  0  0
  137.2015  149.2068  140.2792 C   0  0  0  0  0  0  0  0  0  0  0  0
  139.3290  150.8977  142.9151 C   0  0  0  0  0  0  0  0  0  0  0  0
  138.3157  151.4433  143.6698 C   0  0  0  0  0  0  0  0  0  0  0  0
  137.1821  151.2537  143.6221 C   0  0  0  0  0  0  0  0  0  0  0  0
  137.4951  149.8953  141.5185 C   0  0  0  0  0  0  0  0  0  0  0  0
  136.5109  150.2137  142.6023 C   0  0  0  0  0  0  0  0  0  0  0  0
  135.9706  151.8564  144.7100 C   0  0  0  0  0  0  0  0  0  0  0  0
  135.1494  151.2290  145.2213 C   0  0  0  0  0  0  0  0  0  0  0  0
  136.4799  152.9133  145.0836 O   0  0  0  0  0  0  0  0  0  0  0  0
  1  2  2  0
  1  3  1  0
  2  4  1  0
  4  5  2  0
  3  6  1  0
  6  7  2  0
  7  8  1  0
  3  9  2  0
  5  9  1  0
  8 10  2  0
  9 10  1  0
  8 11  1  0
 11 12  1  0
 11 13  2  0
M  END
$$$$

     RDKit          3D

 13 13  0  0  0  0  0  0  0  0999 V2000
  140.3037  150.2154  139.4789 Cl  0  0  0  0  0  0  0  0  0  0  0  0
  138.6781  150.1864  140.5322 C   0  0  0  0  0  0  0  0  0  0  0  0
  137.6383  149.3835  140.0932 C   0  0  0  0  0  0  0  0  0  0  0  0
  138.8659  150.7191  141.4521 C   0  0  0  0  0  0  0  0  0  0  0  0
  137.5320  148.8060  138.7961 C   0  0  0  0  0  0  0  0  0  0  0  0
  136.5059  149.4850  140.9714 C   0  0  0  0  0  0  0  0  0  0  0  0
  137.8418  150.8348  142.5287 C   0  0  0  0  0  0  0  0  0  0  0  0
  138.0060  151.4939  143.7934 C   0  0  0  0  0  0  0  0  0  0  0  0
  135.2480  149.0779  140.5571 C   0  0  0  0  0  0  0  0  0  0  0  0
  136.6154  150.2081  142.1956 C   0  0  0  0  0  0  0  0  0  0  0  0
  136.9429  151.6678  144.6379 C   0  0  0  0  0  0  0  0  0  0  0  0
  136.1864  150.9255  145.1350 C   0  0  0  0  0  0  0  0  0  0  0  0
  136.5662  152.9885  144.9019 C   0  0  0  0  0  0  0  0  0  0  0  0
  1  2  1  0
  2  3  2  0
  2  4  1  0
  3  5  1  0
  3  6  1  0
  4  7  2  0
  7  8  1  0
  6  9  1  0
  6 10  2  0
  7 10  1  0
  8 11  1  0
 11 12  2  0
 11 13  1  0
M  END
$$$$

     RDKit          3D

 13 14  0  0  0  0  0  0  0  0999 V2000
  139.3434  149.9921  140.5876 C   0  0  0  0  0  0  0  0  0  0  0  0
  138.9518  149.9236  139.3657 C   0  0  0  0  0  0  0  0  0  0  0  0
  138.6168  150.1115  141.6414 C   0  0  0  0  0  0  0  0  0  0  0  0
  137.1898  149.8671  141.8329 C   0  0  0  0  0  0  0  0  0  0  0  0
  136.5148  149.7637  140.5812 C   0  0  0  0  0  0  0  0  0  0  0  0
  139.1786  150.4016  143.1316 C   0  0  0  0  0  0  0  0  0  0  0  0
  138.3339  151.1454  143.8950 C   0  0  0  0  0  0  0  0  0  0  0  0
  135.0990  149.6698  140.3675 C   0  0  0  0  0  0  0  0  0  0  0  0
  137.0328  151.0212  144.0393 C   0  0  0  0  0  0  0  0  0  0  0  0
  137.3963  149.6933  139.3497 C   0  0  0  0  0  0  0  0  0  0  0  0
  136.3084  151.4469  145.1657 C   0  0  0  0  0  0  0  0  0  0  0  0
  136.4270  150.2582  142.9886 N   0  0  0  0  0  0  0  0  0  0  0  0
  135.1676  152.1128  144.9464 C   0  0  0  0  0  0  0  0  0  0  0  0
  1  2  2  0
  1  3  1  0
  3  4  1  0
  4  5  2  0
  3  6  1  0
  6  7  2  0
  5  8  1  0
  7  9  1  0
  2 10  1  0
  5 10  1  0
  9 11  1  0
  4 12  1  0
  9 12  2  0
 11 13  1  0
M  END
$$$$

     RDKit          3D

 13 14  0  0  0  0  0  0  0  0999 V2000
  140.3037  150.2154  139.4789 Cl  0  0  0  0  0  0  0  0  0  0  0  0
  138.6781  150.1864  140.5322 C   0  0  0  0  0  0  0  0  0  0  0  0
  137.6383  149.3835  140.0932 C   0  0  0  0  0  0  0  0  0  0  0  0
  139.0323  150.8827  141.6188 C   0  0  0  0  0  0  0  0  0  0  0  0
  138.0466  150.8334  142.6902 C   0  0  0  0  0  0  0  0  0  0  0  0
  136.8389  150.0632  142.4017 C   0  0  0  0  0  0  0  0  0  0  0  0
  135.7986  150.2251  143.4009 C   0  0  0  0  0  0  0  0  0  0  0  0
  136.2526  151.2188  144.4069 C   0  0  0  0  0  0  0  0  0  0  0  0
  135.5909  151.7267  145.5088 C   0  0  0  0  0  0  0  0  0  0  0  0
  136.4973  149.5324  141.1264 C   0  0  0  0  0  0  0  0  0  0  0  0
  137.9509  151.3745  144.0154 C   0  0  0  0  0  0  0  0  0  0  0  0
  135.6546  151.6013  146.6136 C   0  0  0  0  0  0  0  0  0  0  0  0
  134.8426  152.9541  145.0389 C   0  0  0  0  0  0  0  0  0  0  0  0
  1  2  1  0
  2  3  2  0
  2  4  1  0
  4  5  2  0
  5  6  1  0
  6  7  1  0
  7  8  1  0
  8  9  1  0
  3 10  1  0
  6 10  2  0
  5 11  1  0
  8 11  2  0
  9 12  2  0
  9 13  1  0
M  END
$$$$

     RDKit          3D

 13 14  0  0  0  0  0  0  0  0999 V2000
  140.3037  150.2154  139.4789 Cl  0  0  0  0  0  0  0  0  0  0  0  0
  138.6781  150.1864  140.5322 C   0  0  0  0  0  0  0  0  0  0  0  0
  137.6383  149.3835  140.0932 C   0  0  0  0  0  0  0  0  0  0  0  0
  138.8659  150.7191  141.4521 C   0  0  0  0  0  0  0  0  0  0  0  0
  138.3205  150.9402  142.2995 C   0  0  0  0  0  0  0  0  0  0  0  0
  136.9011  150.1337  142.2782 C   0  0  0  0  0  0  0  0  0  0  0  0
  138.3559  151.6546  143.7677 C   0  0  0  0  0  0  0  0  0  0  0  0
  135.9546  150.4019  143.2832 C   0  0  0  0  0  0  0  0  0  0  0  0
  136.5687  149.5570  141.0018 C   0  0  0  0  0  0  0  0  0  0  0  0
  136.3514  151.3474  144.2875 C   0  0  0  0  0  0  0  0  0  0  0  0
  137.2867  151.7106  144.5865 C   0  0  0  0  0  0  0  0  0  0  0  0
  135.2930  151.5040  145.4758 C   0  0  0  0  0  0  0  0  0  0  0  0
  137.3231  152.5024  145.6055 O   0  0  0  0  0  0  0  0  0  0  0  0
  1  2  1  0
  2  3  2  0
  2  4  1  0
  4  5  2  0
  5  6  1  0
  5  7  1  0
  6  8  1  0
  3  9  1  0
  6  9  2  0
  8 10  2  0
  7 11  1  0
 10 11  1  0
 10 12  1  0
 11 13  2  0
M  END
$$$$

     RDKit          3D

 13 14  0  0  0  0  0  0  0  0999 V2000
  138.9995  149.7631  140.3651 C   0  0  0  0  0  0  0  0  0  0  0  0
  138.7139  149.5446  139.1245 C   0  0  0  0  0  0  0  0  0  0  0  0
  138.1832  150.1045  141.2841 C   0  0  0  0  0  0  0  0  0  0  0  0
  137.3206  149.5905  138.6810 C   0  0  0  0  0  0  0  0  0  0  0  0
  136.7270  150.0359  141.0328 C   0  0  0  0  0  0  0  0  0  0  0  0
  135.7568  150.2398  142.0493 C   0  0  0  0  0  0  0  0  0  0  0  0
  136.3278  149.7151  139.6182 C   0  0  0  0  0  0  0  0  0  0  0  0
  136.3540  151.0221  143.1197 C   0  0  0  0  0  0  0  0  0  0  0  0
  138.5087  150.5472  142.7366 C   0  0  0  0  0  0  0  0  0  0  0  0
  135.2883  151.5546  144.1699 C   0  0  0  0  0  0  0  0  0  0  0  0
  137.6618  151.0243  143.6333 C   0  0  0  0  0  0  0  0  0  0  0  0
  134.9692  151.0480  145.2128 C   0  0  0  0  0  0  0  0  0  0  0  0
  135.7251  150.0957  145.9563 C   0  0  0  0  0  0  0  0  0  0  0  0
  1  2  2  0
  1  3  1  0
  2  4  1  0
  3  5  2  0
  5  6  1  0
  4  7  2  0
  5  7  1  0
  6  8  2  0
  3  9  1  0
  8 10  1  0
  8 11  1  0
  9 11  2  0
 10 12  2  3
 12 13  1  0
M  END
$$$$

     RDKit          3D

 13 14  0  0  0  0  0  0  0  0999 V2000
  139.5547  150.5069  140.4449 C   0  0  0  0  0  0  0  0  0  0  0  0
  139.2163  150.0152  139.3729 C   0  0  0  0  0  0  0  0  0  0  0  0
  138.8578  150.3067  141.5860 C   0  0  0  0  0  0  0  0  0  0  0  0
  137.9790  149.2997  139.2383 C   0  0  0  0  0  0  0  0  0  0  0  0
  137.2015  149.2068  140.2792 C   0  0  0  0  0  0  0  0  0  0  0  0
  139.3290  150.8977  142.9151 C   0  0  0  0  0  0  0  0  0  0  0  0
  135.7742  148.8078  140.2634 C   0  0  0  0  0  0  0  0  0  0  0  0
  138.3518  151.4838  143.6813 C   0  0  0  0  0  0  0  0  0  0  0  0
  137.1746  151.2983  143.5321 C   0  0  0  0  0  0  0  0  0  0  0  0
  137.6012  149.8643  141.4782 C   0  0  0  0  0  0  0  0  0  0  0  0
  136.6785  150.2927  142.6081 N   0  0  0  0  0  0  0  0  0  0  0  0
  136.3292  151.6601  144.6829 O   0  0  0  0  0  0  0  0  0  0  0  0
  136.6326  152.6143  145.2767 C   0  0  0  0  0  0  0  0  0  0  0  0
  1  2  2  0
  1  3  1  0
  2  4  1  0
  4  5  2  0
  3  6  1  0
  5  7  1  0
  6  8  2  0
  8  9  1  0
  3 10  2  0
  5 10  1  0
  9 11  1  0
 10 11  1  0
  9 12  1  0
 12 13  1  0
M  END
$$$$

     RDKit          3D

 13 14  0  0  0  0  0  0  0  0999 V2000
  140.3037  150.2154  139.4789 Cl  0  0  0  0  0  0  0  0  0  0  0  0
  138.6781  150.1864  140.5322 C   0  0  0  0  0  0  0  0  0  0  0  0
  137.6383  149.3835  140.0932 C   0  0  0  0  0  0  0  0  0  0  0  0
  139.0323  150.8827  141.6188 C   0  0  0  0  0  0  0  0  0  0  0  0
  136.4854  149.4748  141.0069 C   0  0  0  0  0  0  0  0  0  0  0  0
  135.2458  148.9977  140.4692 C   0  0  0  0  0  0  0  0  0  0  0  0
  136.7840  150.4342  141.8404 C   0  0  0  0  0  0  0  0  0  0  0  0
  135.5883  150.7248  142.8957 C   0  0  0  0  0  0  0  0  0  0  0  0
  136.2040  151.5704  144.0279 C   0  0  0  0  0  0  0  0  0  0  0  0
  138.0095  151.0404  142.3385 C   0  0  0  0  0  0  0  0  0  0  0  0
  135.5477  151.7975  145.2179 C   0  0  0  0  0  0  0  0  0  0  0  0
  135.7438  153.0401  145.9494 C   0  0  0  0  0  0  0  0  0  0  0  0
  137.4994  151.9343  143.8094 C   0  0  0  0  0  0  0  0  0  0  0  0
  1  2  1  0
  2  3  2  0
  2  4  1  0
  3  5  1  0
  5  6  1  0
  5  7  2  0
  7  8  1  0
  8  9  1  0
  4 10  2  0
  7 10  1  0
  9 11  1  0
 11 12  1  0
  9 13  1  0
 10 13  1  0
M  END
$$$$

     RDKit          3D

 13 14  0  0  0  0  0  0  0  0999 V2000
  139.5547  150.5069  140.4449 C   0  0  0  0  0  0  0  0  0  0  0  0
  139.2163  150.0152  139.3729 C   0  0  0  0  0  0  0  0  0  0  0  0
  138.8578  150.3067  141.5860 C   0  0  0  0  0  0  0  0  0  0  0  0
  139.2256  150.3492  142.8903 C   0  0  0  0  0  0  0  0  0  0  0  0
  138.3524  151.0108  143.9708 C   0  0  0  0  0  0  0  0  0  0  0  0
  137.3975  151.4215  143.6155 C   0  0  0  0  0  0  0  0  0  0  0  0
  136.8171  151.3178  142.2498 C   0  0  0  0  0  0  0  0  0  0  0  0
  137.8073  149.6469  139.2161 C   0  0  0  0  0  0  0  0  0  0  0  0
  137.4163  150.5824  141.4225 C   0  0  0  0  0  0  0  0  0  0  0  0
  136.5100  152.2990  144.7751 C   0  0  0  0  0  0  0  0  0  0  0  0
  136.9534  150.0363  140.2928 C   0  0  0  0  0  0  0  0  0  0  0  0
  135.4167  151.7092  145.2421 C   0  0  0  0  0  0  0  0  0  0  0  0
  136.9088  153.5378  145.1239 C   0  0  0  0  0  0  0  0  0  0  0  0
  1  2  2  0
  1  3  1  0
  3  4  1  0
  4  5  2  0
  5  6  1  0
  6  7  2  0
  2  8  1  0
  3  9  2  0
  7  9  1  0
  6 10  1  0
  8 11  2  0
  9 11  1  0
 10 12  1  0
 10 13  2  0
M  END
$$$$

     RDKit          3D

 13 14  0  0  0  0  0  0  0  0999 V2000
  140.3037  150.2154  139.4789 Cl  0  0  0  0  0  0  0  0  0  0  0  0
  138.6781  150.1864  140.5322 C   0  0  0  0  0  0  0  0  0  0  0  0
  137.6383  149.3835  140.0932 C   0  0  0  0  0  0  0  0  0  0  0  0
  139.2398  150.7167  141.5765 C   0  0  0  0  0  0  0  0  0  0  0  0
  138.2210  150.6933  142.6926 C   0  0  0  0  0  0  0  0  0  0  0  0
  138.5246  151.2961  144.0072 C   0  0  0  0  0  0  0  0  0  0  0  0
  137.5101  151.9933  144.4824 C   0  0  0  0  0  0  0  0  0  0  0  0
  136.4881  151.8084  144.2255 C   0  0  0  0  0  0  0  0  0  0  0  0
  136.0392  151.0836  143.2176 C   0  0  0  0  0  0  0  0  0  0  0  0
  136.5439  149.9760  140.3763 C   0  0  0  0  0  0  0  0  0  0  0  0
  136.8299  150.5432  142.4494 C   0  0  0  0  0  0  0  0  0  0  0  0
  135.0229  152.5735  145.1817 Cl  0  0  0  0  0  0  0  0  0  0  0  0
  136.1943  150.1209  141.3130 C   0  0  0  0  0  0  0  0  0  0  0  0
  1  2  1  0
  2  3  1  0
  2  4  2  0
  4  5  1  0
  5  6  1  0
  6  7  2  0
  7  8  1  0
  8  9  2  0
  3 10  2  0
  5 11  2  0
  9 11  1  0
  8 12  1  0
 10 13  1  0
 11 13  1  0
M  END
$$$$

     RDKit          3D

 13 14  0  0  0  0  0  0  0  0999 V2000
  138.7095  151.1467  142.6277 C   0  0  0  0  0  0  0  0  0  0  0  0
  138.5278  151.9381  143.5113 C   0  0  0  0  0  0  0  0  0  0  0  0
  137.3924  151.8109  144.0738 C   0  0  0  0  0  0  0  0  0  0  0  0
  136.5960  150.6215  143.9730 C   0  0  0  0  0  0  0  0  0  0  0  0
  137.9801  149.9621  142.2574 C   0  0  0  0  0  0  0  0  0  0  0  0
  136.5091  152.7523  145.0869 C   0  0  0  0  0  0  0  0  0  0  0  0
  135.4522  152.3080  145.6984 C   0  0  0  0  0  0  0  0  0  0  0  0
  135.4658  150.4744  144.8133 C   0  0  0  0  0  0  0  0  0  0  0  0
  136.9370  149.6959  142.9559 C   0  0  0  0  0  0  0  0  0  0  0  0
  134.8848  151.2837  145.5464 C   0  0  0  0  0  0  0  0  0  0  0  0
  140.0453  151.3476  141.7557 C   0  0  0  0  0  0  0  0  0  0  0  0
  140.1047  150.6313  140.4913 C   0  0  0  0  0  0  0  0  0  0  0  0
  140.8512  151.0365  139.4210 C   0  0  0  0  0  0  0  0  0  0  0  0
  1  2  1  0
  2  3  2  0
  3  4  1  0
  1  5  2  0
  3  6  1  0
  6  7  1  0
  4  8  1  0
  4  9  2  0
  5  9  1  0
  7 10  2  0
  8 10  2  0
  1 11  1  0
 11 12  2  3
 12 13  1  0
M  END
$$$$

     RDKit          3D

 13 14  0  0  0  0  0  0  0  0999 V2000
  140.3037  150.2154  139.4789 Cl  0  0  0  0  0  0  0  0  0  0  0  0
  138.6781  150.1864  140.5322 C   0  0  0  0  0  0  0  0  0  0  0  0
  137.6383  149.3835  140.0932 C   0  0  0  0  0  0  0  0  0  0  0  0
  136.4381  149.4572  140.8191 C   0  0  0  0  0  0  0  0  0  0  0  0
  139.1310  150.7531  141.5085 C   0  0  0  0  0  0  0  0  0  0  0  0
  138.1124  150.7972  142.6518 C   0  0  0  0  0  0  0  0  0  0  0  0
  136.8765  150.4821  142.6413 C   0  0  0  0  0  0  0  0  0  0  0  0
  138.4674  151.5134  144.0753 C   0  0  0  0  0  0  0  0  0  0  0  0
  137.4174  151.9366  144.7466 C   0  0  0  0  0  0  0  0  0  0  0  0
  136.0263  149.9500  141.8836 C   0  0  0  0  0  0  0  0  0  0  0  0
  136.4667  151.3245  144.4030 C   0  0  0  0  0  0  0  0  0  0  0  0
  136.1111  150.8775  143.7022 C   0  0  0  0  0  0  0  0  0  0  0  0
  135.0177  151.4412  144.6724 C   0  0  0  0  0  0  0  0  0  0  0  0
  1  2  1  0
  2  3  2  0
  3  4  1  0
  2  5  1  0
  5  6  2  0
  6  7  1  0
  6  8  1  0
  8  9  1  0
  4 10  2  0
  7 10  1  0
  9 11  1  0
  7 12  1  0
 11 13  1  0
 12 13  3  0
M  END
$$$$

     RDKit          3D

 13 14  0  0  0  0  0  0  0  0999 V2000
  139.3434  149.9921  140.5876 C   0  0  0  0  0  0  0  0  0  0  0  0
  138.9518  149.9236  139.3657 C   0  0  0  0  0  0  0  0  0  0  0  0
  138.6168  150.1115  141.6414 C   0  0  0  0  0  0  0  0  0  0  0  0
  137.1898  149.8671  141.8329 C   0  0  0  0  0  0  0  0  0  0  0  0
  136.5148  149.7637  140.5812 C   0  0  0  0  0  0  0  0  0  0  0  0
  139.1786  150.4016  143.1316 C   0  0  0  0  0  0  0  0  0  0  0  0
  138.3339  151.1454  143.8950 C   0  0  0  0  0  0  0  0  0  0  0  0
  136.9941  151.0549  143.8223 C   0  0  0  0  0  0  0  0  0  0  0  0
  136.3317  150.3439  142.8413 C   0  0  0  0  0  0  0  0  0  0  0  0
  139.7579  149.9603  138.2100 C   0  0  0  0  0  0  0  0  0  0  0  0
  137.1969  149.5766  139.2774 C   0  0  0  0  0  0  0  0  0  0  0  0
  136.2631  151.7275  144.8546 C   0  0  0  0  0  0  0  0  0  0  0  0
  136.6992  152.7633  145.6532 C   0  0  0  0  0  0  0  0  0  0  0  0
  1  2  2  0
  1  3  1  0
  3  4  1  0
  4  5  2  0
  3  6  1  0
  6  7  2  0
  7  8  1  0
  4  9  1  0
  8  9  1  0
  2 10  1  0
  2 11  1  0
  5 11  1  0
  8 12  1  0
 12 13  1  0
M  END
$$$$

     RDKit          3D

 13 14  0  0  0  0  0  0  0  0999 V2000
  139.5547  150.5069  140.4449 C   0  0  0  0  0  0  0  0  0  0  0  0
  139.2163  150.0152  139.3729 C   0  0  0  0  0  0  0  0  0  0  0  0
  138.8578  150.3067  141.5860 C   0  0  0  0  0  0  0  0  0  0  0  0
  139.2256  150.3492  142.8903 C   0  0  0  0  0  0  0  0  0  0  0  0
  138.5566  151.2848  143.6742 C   0  0  0  0  0  0  0  0  0  0  0  0
  137.8562  149.4560  139.3195 C   0  0  0  0  0  0  0  0  0  0  0  0
  137.4734  151.5824  143.4210 C   0  0  0  0  0  0  0  0  0  0  0  0
  137.4375  150.1429  141.2506 C   0  0  0  0  0  0  0  0  0  0  0  0
  137.4451  148.9003  138.0605 C   0  0  0  0  0  0  0  0  0  0  0  0
  136.6476  150.2196  140.2658 C   0  0  0  0  0  0  0  0  0  0  0  0
  136.5284  150.9462  142.5146 C   0  0  0  0  0  0  0  0  0  0  0  0
  136.6773  151.9887  144.7336 C   0  0  0  0  0  0  0  0  0  0  0  0
  135.4010  151.4564  144.9057 C   0  0  0  0  0  0  0  0  0  0  0  0
  1  2  2  0
  1  3  1  0
  3  4  1  0
  4  5  2  0
  2  6  1  0
  5  7  1  0
  3  8  2  0
  6  9  1  0
  6 10  2  0
  8 10  1  0
  7 11  1  0
  8 11  1  0
  7 12  1  0
 12 13  1  0
M  END
$$$$

     RDKit          3D

 13 14  0  0  0  0  0  0  0  0999 V2000
  139.3434  149.9921  140.5876 C   0  0  0  0  0  0  0  0  0  0  0  0
  138.9518  149.9236  139.3657 C   0  0  0  0  0  0  0  0  0  0  0  0
  138.6168  150.1115  141.6414 C   0  0  0  0  0  0  0  0  0  0  0  0
  137.1898  149.8671  141.8329 C   0  0  0  0  0  0  0  0  0  0  0  0
  136.5148  149.7637  140.5812 C   0  0  0  0  0  0  0  0  0  0  0  0
  139.1786  150.4016  143.1316 C   0  0  0  0  0  0  0  0  0  0  0  0
  138.3339  151.1454  143.8950 C   0  0  0  0  0  0  0  0  0  0  0  0
  136.9941  151.0549  143.8223 C   0  0  0  0  0  0  0  0  0  0  0  0
  139.7963  149.9608  138.2189 C   0  0  0  0  0  0  0  0  0  0  0  0
  136.3162  150.3304  142.8082 C   0  0  0  0  0  0  0  0  0  0  0  0
  136.0346  151.7741  145.0797 C   0  0  0  0  0  0  0  0  0  0  0  0
  137.4921  149.6807  139.3043 C   0  0  0  0  0  0  0  0  0  0  0  0
  136.5087  152.7984  145.7839 C   0  0  0  0  0  0  0  0  0  0  0  0
  1  2  2  0
  1  3  1  0
  3  4  1  0
  4  5  2  0
  3  6  1  0
  6  7  2  0
  7  8  1  0
  2  9  1  0
  4 10  1  0
  8 10  2  0
  8 11  1  0
  2 12  1  0
  5 12  1  0
 11 13  1  0
M  END
$$$$

     RDKit          3D

 13 14  0  0  0  0  0  0  0  0999 V2000
  140.3037  150.2154  139.4789 Cl  0  0  0  0  0  0  0  0  0  0  0  0
  138.6781  150.1864  140.5322 C   0  0  0  0  0  0  0  0  0  0  0  0
  137.6383  149.3835  140.0932 C   0  0  0  0  0  0  0  0  0  0  0  0
  139.2398  150.7167  141.5765 C   0  0  0  0  0  0  0  0  0  0  0  0
  138.2210  150.6933  142.6926 C   0  0  0  0  0  0  0  0  0  0  0  0
  138.5246  151.2961  144.0072 C   0  0  0  0  0  0  0  0  0  0  0  0
  137.5101  151.9933  144.4824 C   0  0  0  0  0  0  0  0  0  0  0  0
  136.4881  151.8084  144.2255 C   0  0  0  0  0  0  0  0  0  0  0  0
  135.2401  152.4558  144.9698 C   0  0  0  0  0  0  0  0  0  0  0  0
  136.2072  150.8782  143.0668 C   0  0  0  0  0  0  0  0  0  0  0  0
  134.5498  151.8905  145.7648 C   0  0  0  0  0  0  0  0  0  0  0  0
  137.1883  150.2829  142.2736 C   0  0  0  0  0  0  0  0  0  0  0  0
  136.6862  149.6964  141.2040 N   0  0  0  0  0  0  0  0  0  0  0  0
  1  2  1  0
  2  3  1  0
  2  4  2  0
  4  5  1  0
  5  6  1  0
  6  7  2  0
  7  8  1  0
  8  9  1  0
  8 10  2  0
  9 11  2  0
  5 12  2  0
 10 12  1  0
  3 13  2  0
 12 13  1  0
M  END
$$$$

     RDKit          3D

 13 14  0  0  0  0  0  0  0  0999 V2000
  140.3037  150.2154  139.4789 Cl  0  0  0  0  0  0  0  0  0  0  0  0
  138.6781  150.1864  140.5322 C   0  0  0  0  0  0  0  0  0  0  0  0
  137.6383  149.3835  140.0932 C   0  0  0  0  0  0  0  0  0  0  0  0
  139.2398  150.7167  141.5765 C   0  0  0  0  0  0  0  0  0  0  0  0
  138.3576  151.0493  142.3779 C   0  0  0  0  0  0  0  0  0  0  0  0
  136.9512  150.5097  142.2939 C   0  0  0  0  0  0  0  0  0  0  0  0
  138.4910  151.8371  143.8148 C   0  0  0  0  0  0  0  0  0  0  0  0
  135.8609  150.7873  143.2353 C   0  0  0  0  0  0  0  0  0  0  0  0
  137.5239  151.7793  144.7653 C   0  0  0  0  0  0  0  0  0  0  0  0
  136.6563  149.8843  141.0953 C   0  0  0  0  0  0  0  0  0  0  0  0
  134.6021  150.5039  142.9717 C   0  0  0  0  0  0  0  0  0  0  0  0
  136.2273  151.4918  144.5475 C   0  0  0  0  0  0  0  0  0  0  0  0
  135.4534  151.7791  145.7623 C   0  0  0  0  0  0  0  0  0  0  0  0
  1  2  1  0
  2  3  1  0
  2  4  2  0
  4  5  1  0
  5  6  2  0
  5  7  1  0
  6  8  1  0
  7  9  2  0
  3 10  2  0
  6 10  1  0
  8 11  1  0
  8 12  2  0
  9 12  1  0
 12 13  1  0
M  END
$$$$

     RDKit          3D

 13 14  0  0  0  0  0  0  0  0999 V2000
  140.3037  150.2154  139.4789 Cl  0  0  0  0  0  0  0  0  0  0  0  0
  138.6781  150.1864  140.5322 C   0  0  0  0  0  0  0  0  0  0  0  0
  137.6383  149.3835  140.0932 C   0  0  0  0  0  0  0  0  0  0  0  0
  139.0323  150.8827  141.6188 C   0  0  0  0  0  0  0  0  0  0  0  0
  138.0466  150.8334  142.6902 C   0  0  0  0  0  0  0  0  0  0  0  0
  136.8389  150.0632  142.4017 C   0  0  0  0  0  0  0  0  0  0  0  0
  135.7986  150.2251  143.4009 C   0  0  0  0  0  0  0  0  0  0  0  0
  136.2526  151.2188  144.4069 C   0  0  0  0  0  0  0  0  0  0  0  0
  136.5535  149.5593  141.1181 C   0  0  0  0  0  0  0  0  0  0  0  0
  138.1102  151.3956  144.0471 C   0  0  0  0  0  0  0  0  0  0  0  0
  135.7398  152.4609  144.4246 C   0  0  0  0  0  0  0  0  0  0  0  0
  135.7396  153.1863  145.6983 C   0  0  0  0  0  0  0  0  0  0  0  0
  134.8099  152.8012  146.7183 C   0  0  0  0  0  0  0  0  0  0  0  0
  1  2  1  0
  2  3  2  0
  2  4  1  0
  4  5  2  0
  5  6  1  0
  6  7  1  0
  7  8  1  0
  3  9  1  0
  6  9  2  0
  5 10  1  0
  8 10  1  0
  8 11  1  0
 11 12  1  0
 12 13  1  0
M  END
$$$$

     RDKit          3D

 13 14  0  0  0  0  0  0  0  0999 V2000
  138.9995  149.7631  140.3651 C   0  0  0  0  0  0  0  0  0  0  0  0
  138.7139  149.5446  139.1245 C   0  0  0  0  0  0  0  0  0  0  0  0
  138.1832  150.1045  141.2841 C   0  0  0  0  0  0  0  0  0  0  0  0
  137.3206  149.5905  138.6810 C   0  0  0  0  0  0  0  0  0  0  0  0
  136.7270  150.0359  141.0328 C   0  0  0  0  0  0  0  0  0  0  0  0
  135.7568  150.2398  142.0493 C   0  0  0  0  0  0  0  0  0  0  0  0
  136.3278  149.7151  139.6182 C   0  0  0  0  0  0  0  0  0  0  0  0
  136.3540  151.0221  143.1197 C   0  0  0  0  0  0  0  0  0  0  0  0
  138.4703  150.6798  142.6737 C   0  0  0  0  0  0  0  0  0  0  0  0
  135.2710  151.5317  144.1837 C   0  0  0  0  0  0  0  0  0  0  0  0
  137.6487  151.0859  143.5940 C   0  0  0  0  0  0  0  0  0  0  0  0
  135.1752  151.0954  145.3378 C   0  0  0  0  0  0  0  0  0  0  0  0
  135.2140  151.9068  146.4480 C   0  0  0  0  0  0  0  0  0  0  0  0
  1  2  2  0
  1  3  1  0
  2  4  1  0
  3  5  2  0
  5  6  1  0
  4  7  2  0
  5  7  1  0
  6  8  2  0
  3  9  1  0
  8 10  1  0
  8 11  1  0
  9 11  1  0
 10 12  2  3
 12 13  1  0
M  END
$$$$

     RDKit          3D

 14 15  0  0  0  0  0  0  0  0999 V2000
  140.3037  150.2154  139.4789 Cl  0  0  0  0  0  0  0  0  0  0  0  0
  138.6781  150.1864  140.5322 C   0  0  0  0  0  0  0  0  0  0  0  0
  137.6383  149.3835  140.0932 C   0  0  0  0  0  0  0  0  0  0  0  0
  139.0323  150.8827  141.6188 C   0  0  0  0  0  0  0  0  0  0  0  0
  136.4854  149.4748  141.0069 C   0  0  0  0  0  0  0  0  0  0  0  0
  135.2458  148.9977  140.4692 C   0  0  0  0  0  0  0  0  0  0  0  0
  136.7840  150.4342  141.8404 C   0  0  0  0  0  0  0  0  0  0  0  0
  135.5883  150.7248  142.8957 C   0  0  0  0  0  0  0  0  0  0  0  0
  136.2040  151.5704  144.0279 C   0  0  0  0  0  0  0  0  0  0  0  0
  135.7313  152.4133  144.8107 C   0  0  0  0  0  0  0  0  0  0  0  0
  138.0169  151.0440  142.3165 C   0  0  0  0  0  0  0  0  0  0  0  0
  137.3649  150.9494  144.3583 C   0  0  0  0  0  0  0  0  0  0  0  0
  138.4730  151.2415  143.5835 C   0  0  0  0  0  0  0  0  0  0  0  0
  135.2075  152.4096  145.9966 C   0  0  0  0  0  0  0  0  0  0  0  0
  1  2  1  0
  2  3  2  0
  2  4  1  0
  3  5  1  0
  5  6  1  0
  5  7  2  0
  7  8  1  0
  8  9  1  0
  9 10  2  3
  4 11  2  0
  7 11  1  0
  9 12  1  0
 11 13  1  0
 12 13  2  0
 10 14  1  0
M  END
$$$$

     RDKit          3D

 14 15  0  0  0  0  0  0  0  0999 V2000
  140.3037  150.2154  139.4789 Cl  0  0  0  0  0  0  0  0  0  0  0  0
  138.6781  150.1864  140.5322 C   0  0  0  0  0  0  0  0  0  0  0  0
  137.6383  149.3835  140.0932 C   0  0  0  0  0  0  0  0  0  0  0  0
  139.2398  150.7167  141.5765 C   0  0  0  0  0  0  0  0  0  0  0  0
  138.2210  150.6933  142.6926 C   0  0  0  0  0  0  0  0  0  0  0  0
  138.5246  151.2961  144.0072 C   0  0  0  0  0  0  0  0  0  0  0  0
  137.5101  151.9933  144.4824 C   0  0  0  0  0  0  0  0  0  0  0  0
  136.4881  151.8084  144.2255 C   0  0  0  0  0  0  0  0  0  0  0  0
  135.2401  152.4558  144.9698 C   0  0  0  0  0  0  0  0  0  0  0  0
  136.2072  150.8782  143.0668 C   0  0  0  0  0  0  0  0  0  0  0  0
  135.5363  152.7542  146.2348 C   0  0  0  0  0  0  0  0  0  0  0  0
  136.9293  150.3823  142.4343 C   0  0  0  0  0  0  0  0  0  0  0  0
  137.3974  148.9218  138.9238 C   0  0  0  0  0  0  0  0  0  0  0  0
  136.5936  149.5438  141.2235 C   0  0  0  0  0  0  0  0  0  0  0  0
  1  2  1  0
  2  3  1  0
  2  4  2  0
  4  5  1  0
  5  6  1  0
  6  7  2  0
  7  8  1  0
  8  9  1  0
  8 10  2  0
  9 11  1  0
  5 12  2  0
 10 12  1  0
  3 13  1  0
  3 14  2  0
 12 14  1  0
M  END
$$$$

     RDKit          3D

 14 15  0  0  0  0  0  0  0  0999 V2000
  140.3037  150.2154  139.4789 Cl  0  0  0  0  0  0  0  0  0  0  0  0
  138.6781  150.1864  140.5322 C   0  0  0  0  0  0  0  0  0  0  0  0
  137.6383  149.3835  140.0932 C   0  0  0  0  0  0  0  0  0  0  0  0
  139.0323  150.8827  141.6188 C   0  0  0  0  0  0  0  0  0  0  0  0
  138.0466  150.8334  142.6902 C   0  0  0  0  0  0  0  0  0  0  0  0
  136.8389  150.0632  142.4017 C   0  0  0  0  0  0  0  0  0  0  0  0
  135.7986  150.2251  143.4009 C   0  0  0  0  0  0  0  0  0  0  0  0
  136.2526  151.2188  144.4069 C   0  0  0  0  0  0  0  0  0  0  0  0
  135.5909  151.7267  145.5088 C   0  0  0  0  0  0  0  0  0  0  0  0
  138.4214  151.3877  143.8448 C   0  0  0  0  0  0  0  0  0  0  0  0
  135.5944  153.1618  145.7396 C   0  0  0  0  0  0  0  0  0  0  0  0
  137.4546  148.8677  138.8984 C   0  0  0  0  0  0  0  0  0  0  0  0
  137.5868  151.6069  144.4431 C   0  0  0  0  0  0  0  0  0  0  0  0
  136.4243  149.4563  141.1498 C   0  0  0  0  0  0  0  0  0  0  0  0
  1  2  1  0
  2  3  2  0
  2  4  1  0
  4  5  2  0
  5  6  1  0
  6  7  1  0
  7  8  1  0
  8  9  1  0
  5 10  1  0
  9 11  1  0
  3 12  1  0
  8 13  2  0
 10 13  1  0
  3 14  1  0
  6 14  2  0
M  END
$$$$

     RDKit          3D

 14 15  0  0  0  0  0  0  0  0999 V2000
  139.3434  149.9921  140.5876 C   0  0  0  0  0  0  0  0  0  0  0  0
  138.9518  149.9236  139.3657 C   0  0  0  0  0  0  0  0  0  0  0  0
  138.6168  150.1115  141.6414 C   0  0  0  0  0  0  0  0  0  0  0  0
  137.1898  149.8671  141.8329 C   0  0  0  0  0  0  0  0  0  0  0  0
  136.5148  149.7637  140.5812 C   0  0  0  0  0  0  0  0  0  0  0  0
  139.1786  150.4016  143.1316 C   0  0  0  0  0  0  0  0  0  0  0  0
  138.3339  151.1454  143.8950 C   0  0  0  0  0  0  0  0  0  0  0  0
  136.9941  151.0549  143.8223 C   0  0  0  0  0  0  0  0  0  0  0  0
  136.3317  150.3439  142.8413 C   0  0  0  0  0  0  0  0  0  0  0  0
  136.1753  151.7170  145.0692 C   0  0  0  0  0  0  0  0  0  0  0  0
  135.2464  149.4942  140.4339 C   0  0  0  0  0  0  0  0  0  0  0  0
  134.8817  151.5909  145.0422 C   0  0  0  0  0  0  0  0  0  0  0  0
  139.7455  149.9308  138.2214 C   0  0  0  0  0  0  0  0  0  0  0  0
  137.1293  149.5856  139.2111 C   0  0  0  0  0  0  0  0  0  0  0  0
  1  2  2  0
  1  3  1  0
  3  4  1  0
  4  5  2  0
  3  6  1  0
  6  7  2  0
  7  8  1  0
  4  9  1  0
  8  9  2  0
  8 10  1  0
  5 11  1  0
 10 12  2  0
  2 13  1  0
  2 14  1  0
  5 14  1  0
M  END
$$$$

     RDKit          3D

 14 15  0  0  0  0  0  0  0  0999 V2000
  140.3037  150.2154  139.4789 Cl  0  0  0  0  0  0  0  0  0  0  0  0
  138.6781  150.1864  140.5322 C   0  0  0  0  0  0  0  0  0  0  0  0
  137.6383  149.3835  140.0932 C   0  0  0  0  0  0  0  0  0  0  0  0
  139.2398  150.7167  141.5765 C   0  0  0  0  0  0  0  0  0  0  0  0
  138.2210  150.6933  142.6926 C   0  0  0  0  0  0  0  0  0  0  0  0
  138.5246  151.2961  144.0072 C   0  0  0  0  0  0  0  0  0  0  0  0
  137.5101  151.9933  144.4824 C   0  0  0  0  0  0  0  0  0  0  0  0
  136.4881  151.8084  144.2255 C   0  0  0  0  0  0  0  0  0  0  0  0
  135.2401  152.4558  144.9698 C   0  0  0  0  0  0  0  0  0  0  0  0
  136.2072  150.8782  143.0668 C   0  0  0  0  0  0  0  0  0  0  0  0
  134.5498  151.8905  145.7648 C   0  0  0  0  0  0  0  0  0  0  0  0
  137.1399  150.4950  142.3934 C   0  0  0  0  0  0  0  0  0  0  0  0
  137.3644  148.8721  138.9867 C   0  0  0  0  0  0  0  0  0  0  0  0
  136.5996  149.6480  141.1423 C   0  0  0  0  0  0  0  0  0  0  0  0
  1  2  1  0
  2  3  1  0
  2  4  2  0
  4  5  1  0
  5  6  1  0
  6  7  2  0
  7  8  1  0
  8  9  1  0
  8 10  2  0
  9 11  2  0
  5 12  2  0
 10 12  1  0
  3 13  1  0
  3 14  2  0
 12 14  1  0
M  END
$$$$

     RDKit          3D

 14 15  0  0  0  0  0  0  0  0999 V2000
  138.9995  149.7631  140.3651 C   0  0  0  0  0  0  0  0  0  0  0  0
  138.7139  149.5446  139.1245 C   0  0  0  0  0  0  0  0  0  0  0  0
  138.1832  150.1045  141.2841 C   0  0  0  0  0  0  0  0  0  0  0  0
  137.3206  149.5905  138.6810 C   0  0  0  0  0  0  0  0  0  0  0  0
  136.9836  149.1476  137.4587 O   0  0  0  0  0  0  0  0  0  0  0  0
  138.6053  150.6473  142.5904 C   0  0  0  0  0  0  0  0  0  0  0  0
  136.8415  150.3585  141.0404 C   0  0  0  0  0  0  0  0  0  0  0  0
  135.9113  150.6663  142.1137 C   0  0  0  0  0  0  0  0  0  0  0  0
  134.5600  150.6789  141.8549 C   0  0  0  0  0  0  0  0  0  0  0  0
  136.7319  150.9827  142.9796 C   0  0  0  0  0  0  0  0  0  0  0  0
  136.5210  149.7863  139.7487 C   0  0  0  0  0  0  0  0  0  0  0  0
  135.7251  151.5724  144.2724 C   0  0  0  0  0  0  0  0  0  0  0  0
  137.9792  151.0599  143.6149 C   0  0  0  0  0  0  0  0  0  0  0  0
  136.4466  151.7788  145.6309 C   0  0  0  0  0  0  0  0  0  0  0  0
  1  2  2  0
  1  3  1  0
  2  4  1  0
  4  5  1  0
  3  6  1  0
  3  7  2  0
  7  8  1  0
  8  9  1  0
  8 10  2  0
  4 11  2  0
  7 11  1  0
 10 12  1  0
  6 13  2  0
 10 13  1  0
 12 14  1  0
M  END
$$$$

     RDKit          3D

 14 15  0  0  0  0  0  0  0  0999 V2000
  140.3037  150.2154  139.4789 Cl  0  0  0  0  0  0  0  0  0  0  0  0
  138.6781  150.1864  140.5322 C   0  0  0  0  0  0  0  0  0  0  0  0
  137.6383  149.3835  140.0932 C   0  0  0  0  0  0  0  0  0  0  0  0
  139.2398  150.7167  141.5765 C   0  0  0  0  0  0  0  0  0  0  0  0
  138.2210  150.6933  142.6926 C   0  0  0  0  0  0  0  0  0  0  0  0
  138.5246  151.2961  144.0072 C   0  0  0  0  0  0  0  0  0  0  0  0
  137.5101  151.9933  144.4824 C   0  0  0  0  0  0  0  0  0  0  0  0
  136.4881  151.8084  144.2255 C   0  0  0  0  0  0  0  0  0  0  0  0
  135.2401  152.4558  144.9698 C   0  0  0  0  0  0  0  0  0  0  0  0
  136.2507  150.8880  143.0885 C   0  0  0  0  0  0  0  0  0  0  0  0
  137.2351  150.3188  142.3339 C   0  0  0  0  0  0  0  0  0  0  0  0
  137.3381  148.8822  138.9968 C   0  0  0  0  0  0  0  0  0  0  0  0
  134.8082  151.9431  146.0637 C   0  0  0  0  0  0  0  0  0  0  0  0
  136.5790  149.5082  141.3854 N   0  0  0  0  0  0  0  0  0  0  0  0
  1  2  1  0
  2  3  1  0
  2  4  2  0
  4  5  1  0
  5  6  1  0
  6  7  2  0
  7  8  1  0
  8  9  1  0
  8 10  2  0
  5 11  2  0
 10 11  1  0
  3 12  1  0
  9 13  1  0
  3 14  2  0
 11 14  1  0
M  END
$$$$

     RDKit          3D

 14 15  0  0  0  0  0  0  0  0999 V2000
  139.5547  150.5069  140.4449 C   0  0  0  0  0  0  0  0  0  0  0  0
  139.2163  150.0152  139.3729 C   0  0  0  0  0  0  0  0  0  0  0  0
  138.8578  150.3067  141.5860 C   0  0  0  0  0  0  0  0  0  0  0  0
  137.9790  149.2997  139.2383 C   0  0  0  0  0  0  0  0  0  0  0  0
  137.5546  148.8181  137.9582 C   0  0  0  0  0  0  0  0  0  0  0  0
  139.2075  150.9117  142.9013 C   0  0  0  0  0  0  0  0  0  0  0  0
  138.1326  151.1492  143.9187 C   0  0  0  0  0  0  0  0  0  0  0  0
  136.9487  150.4969  143.4896 C   0  0  0  0  0  0  0  0  0  0  0  0
  137.1876  149.3174  140.4598 C   0  0  0  0  0  0  0  0  0  0  0  0
  135.9281  150.8638  144.3735 C   0  0  0  0  0  0  0  0  0  0  0  0
  135.6454  152.1618  144.5020 C   0  0  0  0  0  0  0  0  0  0  0  0
  137.5302  149.8130  141.5331 C   0  0  0  0  0  0  0  0  0  0  0  0
  135.4727  152.7299  145.9482 C   0  0  0  0  0  0  0  0  0  0  0  0
  136.5959  149.9069  142.5304 N   0  0  0  0  0  0  0  0  0  0  0  0
  1  2  2  0
  1  3  1  0
  2  4  1  0
  4  5  1  0
  3  6  1  0
  6  7  2  0
  7  8  1  0
  4  9  2  0
  8 10  1  0
 10 11  1  0
  3 12  2  0
  9 12  1  0
 11 13  1  0
  8 14  2  0
 12 14  1  0
M  END
$$$$

     RDKit          3D

 14 14  0  0  0  0  0  0  0  0999 V2000
  140.3037  150.2154  139.4789 Cl  0  0  0  0  0  0  0  0  0  0  0  0
  138.6781  150.1864  140.5322 C   0  0  0  0  0  0  0  0  0  0  0  0
  137.6383  149.3835  140.0932 C   0  0  0  0  0  0  0  0  0  0  0  0
  136.4381  149.4572  140.8191 C   0  0  0  0  0  0  0  0  0  0  0  0
  139.1310  150.7531  141.5085 C   0  0  0  0  0  0  0  0  0  0  0  0
  138.1124  150.7972  142.6518 C   0  0  0  0  0  0  0  0  0  0  0  0
  136.8765  150.4821  142.6413 C   0  0  0  0  0  0  0  0  0  0  0  0
  138.7976  151.4294  144.1199 Cl  0  0  0  0  0  0  0  0  0  0  0  0
  136.0045  149.9611  141.8717 C   0  0  0  0  0  0  0  0  0  0  0  0
  136.1378  151.0866  143.8926 C   0  0  0  0  0  0  0  0  0  0  0  0
  135.2289  150.5785  144.5990 C   0  0  0  0  0  0  0  0  0  0  0  0
  134.8656  151.2475  145.8702 C   0  0  0  0  0  0  0  0  0  0  0  0
  133.9601  151.1999  146.8197 C   0  0  0  0  0  0  0  0  0  0  0  0
  136.4399  152.3604  144.0983 O   0  0  0  0  0  0  0  0  0  0  0  0
  1  2  1  0
  2  3  2  0
  3  4  1  0
  2  5  1  0
  5  6  2  0
  6  7  1  0
  6  8  1  0
  4  9  2  0
  7  9  1  0
  7 10  1  0
 10 11  1  0
 11 12  2  3
 12 13  1  0
 10 14  2  0
M  END
$$$$

     RDKit          3D

 14 15  0  0  0  0  0  0  0  0999 V2000
  140.3037  150.2154  139.4789 Cl  0  0  0  0  0  0  0  0  0  0  0  0
  138.6781  150.1864  140.5322 C   0  0  0  0  0  0  0  0  0  0  0  0
  137.6383  149.3835  140.0932 C   0  0  0  0  0  0  0  0  0  0  0  0
  139.0323  150.8827  141.6188 C   0  0  0  0  0  0  0  0  0  0  0  0
  136.4854  149.4748  141.0069 C   0  0  0  0  0  0  0  0  0  0  0  0
  135.2458  148.9977  140.4692 C   0  0  0  0  0  0  0  0  0  0  0  0
  136.7840  150.4342  141.8404 C   0  0  0  0  0  0  0  0  0  0  0  0
  135.5883  150.7248  142.8957 C   0  0  0  0  0  0  0  0  0  0  0  0
  136.2040  151.5704  144.0279 C   0  0  0  0  0  0  0  0  0  0  0  0
  138.0014  151.0574  142.2988 C   0  0  0  0  0  0  0  0  0  0  0  0
  135.5217  151.8034  145.1992 C   0  0  0  0  0  0  0  0  0  0  0  0
  137.9704  151.7654  143.6658 C   0  0  0  0  0  0  0  0  0  0  0  0
  135.5337  150.9269  146.1612 C   0  0  0  0  0  0  0  0  0  0  0  0
  135.1672  153.1410  145.6019 C   0  0  0  0  0  0  0  0  0  0  0  0
  1  2  1  0
  2  3  2  0
  2  4  1  0
  3  5  1  0
  5  6  1  0
  5  7  2  0
  7  8  1  0
  8  9  1  0
  4 10  2  0
  7 10  1  0
  9 11  1  0
  9 12  1  0
 10 12  1  0
 11 13  2  0
 11 14  1  0
M  END
$$$$

     RDKit          3D

 14 15  0  0  0  0  0  0  0  0999 V2000
  139.5547  150.5069  140.4449 C   0  0  0  0  0  0  0  0  0  0  0  0
  139.2163  150.0152  139.3729 C   0  0  0  0  0  0  0  0  0  0  0  0
  138.8578  150.3067  141.5860 C   0  0  0  0  0  0  0  0  0  0  0  0
  139.2256  150.3492  142.8903 C   0  0  0  0  0  0  0  0  0  0  0  0
  138.5566  151.2848  143.6742 C   0  0  0  0  0  0  0  0  0  0  0  0
  137.8562  149.4560  139.3195 C   0  0  0  0  0  0  0  0  0  0  0  0
  137.4734  151.5824  143.4210 C   0  0  0  0  0  0  0  0  0  0  0  0
  137.4481  150.1790  141.6418 C   0  0  0  0  0  0  0  0  0  0  0  0
  136.6101  152.4735  144.2788 C   0  0  0  0  0  0  0  0  0  0  0  0
  135.5614  152.0148  145.0671 C   0  0  0  0  0  0  0  0  0  0  0  0
  136.7920  149.8116  140.2490 C   0  0  0  0  0  0  0  0  0  0  0  0
  136.6853  150.8841  142.4605 N   0  0  0  0  0  0  0  0  0  0  0  0
  135.5060  150.8379  145.4918 C   0  0  0  0  0  0  0  0  0  0  0  0
  134.5268  152.7354  145.5304 C   0  0  0  0  0  0  0  0  0  0  0  0
  1  2  2  0
  1  3  1  0
  3  4  1  0
  4  5  2  0
  2  6  1  0
  5  7  1  0
  3  8  2  0
  7  9  1  0
  9 10  1  0
  6 11  2  0
  8 11  1  0
  7 12  2  0
  8 12  1  0
 10 13  2  0
 10 14  1  0
M  END
$$$$

     RDKit          3D

 14 15  0  0  0  0  0  0  0  0999 V2000
  138.7095  151.1467  142.6277 C   0  0  0  0  0  0  0  0  0  0  0  0
  138.5278  151.9381  143.5113 C   0  0  0  0  0  0  0  0  0  0  0  0
  137.3840  151.6610  144.3967 C   0  0  0  0  0  0  0  0  0  0  0  0
  136.7653  150.3888  144.2991 C   0  0  0  0  0  0  0  0  0  0  0  0
  138.1237  149.8686  142.3074 C   0  0  0  0  0  0  0  0  0  0  0  0
  138.4285  149.0768  141.2819 C   0  0  0  0  0  0  0  0  0  0  0  0
  138.5072  149.8311  140.0610 C   0  0  0  0  0  0  0  0  0  0  0  0
  137.0799  149.5075  143.3557 C   0  0  0  0  0  0  0  0  0  0  0  0
  136.9991  152.5859  145.4369 C   0  0  0  0  0  0  0  0  0  0  0  0
  139.2332  150.9075  139.8798 C   0  0  0  0  0  0  0  0  0  0  0  0
  139.7495  151.6196  138.9841 C   0  0  0  0  0  0  0  0  0  0  0  0
  139.4305  151.2823  141.2581 C   0  0  0  0  0  0  0  0  0  0  0  0
  135.6782  152.5749  145.9628 C   0  0  0  0  0  0  0  0  0  0  0  0
  135.0107  151.5094  146.1229 C   0  0  0  0  0  0  0  0  0  0  0  0
  1  2  1  0
  2  3  2  0
  3  4  1  0
  1  5  2  0
  5  6  1  0
  6  7  1  0
  4  8  2  0
  5  8  1  0
  3  9  1  0
  7 10  1  0
 10 11  2  0
  1 12  1  0
 10 12  1  0
  9 13  1  0
 13 14  2  0
M  END
$$$$

     RDKit          3D

 14 15  0  0  0  0  0  0  0  0999 V2000
  140.3037  150.2154  139.4789 Cl  0  0  0  0  0  0  0  0  0  0  0  0
  138.6781  150.1864  140.5322 C   0  0  0  0  0  0  0  0  0  0  0  0
  137.6383  149.3835  140.0932 C   0  0  0  0  0  0  0  0  0  0  0  0
  139.0323  150.8827  141.6188 C   0  0  0  0  0  0  0  0  0  0  0  0
  136.4854  149.4748  141.0069 C   0  0  0  0  0  0  0  0  0  0  0  0
  135.2458  148.9977  140.4692 C   0  0  0  0  0  0  0  0  0  0  0  0
  136.7840  150.4342  141.8404 C   0  0  0  0  0  0  0  0  0  0  0  0
  135.5883  150.7248  142.8957 C   0  0  0  0  0  0  0  0  0  0  0  0
  136.2040  151.5704  144.0279 C   0  0  0  0  0  0  0  0  0  0  0  0
  138.0014  151.0574  142.2988 C   0  0  0  0  0  0  0  0  0  0  0  0
  135.5217  151.8034  145.1992 C   0  0  0  0  0  0  0  0  0  0  0  0
  134.8615  151.0203  145.8713 C   0  0  0  0  0  0  0  0  0  0  0  0
  137.5095  152.1138  143.8141 C   0  0  0  0  0  0  0  0  0  0  0  0
  135.5187  153.1569  145.6305 C   0  0  0  0  0  0  0  0  0  0  0  0
  1  2  1  0
  2  3  2  0
  2  4  1  0
  3  5  1  0
  5  6  1  0
  5  7  2  0
  7  8  1  0
  8  9  1  0
  4 10  2  0
  7 10  1  0
  9 11  1  0
 11 12  2  0
  9 13  2  0
 10 13  1  0
 11 14  1  0
M  END
$$$$

     RDKit          3D

 14 15  0  0  0  0  0  0  0  0999 V2000
  140.3037  150.2154  139.4789 Cl  0  0  0  0  0  0  0  0  0  0  0  0
  138.6781  150.1864  140.5322 C   0  0  0  0  0  0  0  0  0  0  0  0
  137.6383  149.3835  140.0932 C   0  0  0  0  0  0  0  0  0  0  0  0
  139.0323  150.8827  141.6188 C   0  0  0  0  0  0  0  0  0  0  0  0
  136.4854  149.4748  141.0069 C   0  0  0  0  0  0  0  0  0  0  0  0
  135.2458  148.9977  140.4692 C   0  0  0  0  0  0  0  0  0  0  0  0
  136.7840  150.4342  141.8404 C   0  0  0  0  0  0  0  0  0  0  0  0
  135.5883  150.7248  142.8957 C   0  0  0  0  0  0  0  0  0  0  0  0
  136.2040  151.5704  144.0279 C   0  0  0  0  0  0  0  0  0  0  0  0
  135.7313  152.4133  144.8107 C   0  0  0  0  0  0  0  0  0  0  0  0
  138.0169  151.0440  142.3165 C   0  0  0  0  0  0  0  0  0  0  0  0
  137.3649  150.9494  144.3583 C   0  0  0  0  0  0  0  0  0  0  0  0
  138.3335  151.7094  143.7124 C   0  0  0  0  0  0  0  0  0  0  0  0
  135.9602  152.7439  145.9101 C   0  0  0  0  0  0  0  0  0  0  0  0
  1  2  1  0
  2  3  2  0
  2  4  1  0
  3  5  1  0
  5  6  1  0
  5  7  2  0
  7  8  1  0
  8  9  1  0
  9 10  2  3
  4 11  2  0
  7 11  1  0
  9 12  1  0
 11 13  1  0
 12 13  1  0
 10 14  1  0
M  END
$$$$

     RDKit          3D

 14 15  0  0  0  0  0  0  0  0999 V2000
  140.3037  150.2154  139.4789 Cl  0  0  0  0  0  0  0  0  0  0  0  0
  138.6781  150.1864  140.5322 C   0  0  0  0  0  0  0  0  0  0  0  0
  137.6383  149.3835  140.0932 C   0  0  0  0  0  0  0  0  0  0  0  0
  138.8659  150.7191  141.4521 C   0  0  0  0  0  0  0  0  0  0  0  0
  136.4770  149.4747  140.9574 C   0  0  0  0  0  0  0  0  0  0  0  0
  135.2970  148.9129  140.3578 C   0  0  0  0  0  0  0  0  0  0  0  0
  136.6537  150.3298  141.9841 C   0  0  0  0  0  0  0  0  0  0  0  0
  135.4964  150.4951  142.9729 C   0  0  0  0  0  0  0  0  0  0  0  0
  137.8474  150.9507  142.4197 C   0  0  0  0  0  0  0  0  0  0  0  0
  135.8529  151.0290  144.2924 C   0  0  0  0  0  0  0  0  0  0  0  0
  137.9106  151.6755  143.7076 C   0  0  0  0  0  0  0  0  0  0  0  0
  134.6723  151.0871  145.2765 C   0  0  0  0  0  0  0  0  0  0  0  0
  135.1478  151.6092  146.5900 C   0  0  0  0  0  0  0  0  0  0  0  0
  137.0225  151.6354  144.5328 C   0  0  0  0  0  0  0  0  0  0  0  0
  1  2  1  0
  2  3  2  0
  2  4  1  0
  3  5  1  0
  5  6  1  0
  5  7  2  0
  7  8  1  0
  4  9  2  0
  7  9  1  0
  8 10  2  0
  9 11  1  0
 10 12  1  0
 12 13  1  0
 10 14  1  0
 11 14  2  0
M  END
$$$$

     RDKit          3D

 14 15  0  0  0  0  0  0  0  0999 V2000
  140.3037  150.2154  139.4789 Cl  0  0  0  0  0  0  0  0  0  0  0  0
  138.6781  150.1864  140.5322 C   0  0  0  0  0  0  0  0  0  0  0  0
  137.6383  149.3835  140.0932 C   0  0  0  0  0  0  0  0  0  0  0  0
  139.2398  150.7167  141.5765 C   0  0  0  0  0  0  0  0  0  0  0  0
  138.2210  150.6933  142.6926 C   0  0  0  0  0  0  0  0  0  0  0  0
  138.5246  151.2961  144.0072 C   0  0  0  0  0  0  0  0  0  0  0  0
  137.5101  151.9933  144.4824 C   0  0  0  0  0  0  0  0  0  0  0  0
  136.4881  151.8084  144.2255 C   0  0  0  0  0  0  0  0  0  0  0  0
  136.0392  151.0836  143.2176 C   0  0  0  0  0  0  0  0  0  0  0  0
  136.5439  149.9760  140.3763 C   0  0  0  0  0  0  0  0  0  0  0  0
  136.9353  150.5268  142.2512 C   0  0  0  0  0  0  0  0  0  0  0  0
  135.2371  152.6093  145.1254 C   0  0  0  0  0  0  0  0  0  0  0  0
  134.9271  152.2332  146.2110 C   0  0  0  0  0  0  0  0  0  0  0  0
  136.1328  150.1736  141.5785 N   0  0  0  0  0  0  0  0  0  0  0  0
  1  2  1  0
  2  3  1  0
  2  4  2  0
  4  5  1  0
  5  6  1  0
  6  7  2  0
  7  8  1  0
  8  9  2  0
  3 10  2  0
  5 11  2  0
  9 11  1  0
  8 12  1  0
 12 13  1  0
 10 14  1  0
 11 14  1  0
M  END
$$$$

     RDKit          3D

 14 15  0  0  0  0  0  0  0  0999 V2000
  140.3037  150.2154  139.4789 Cl  0  0  0  0  0  0  0  0  0  0  0  0
  138.6781  150.1864  140.5322 C   0  0  0  0  0  0  0  0  0  0  0  0
  137.6383  149.3835  140.0932 C   0  0  0  0  0  0  0  0  0  0  0  0
  139.0323  150.8827  141.6188 C   0  0  0  0  0  0  0  0  0  0  0  0
  138.0466  150.8334  142.6902 C   0  0  0  0  0  0  0  0  0  0  0  0
  136.8389  150.0632  142.4017 C   0  0  0  0  0  0  0  0  0  0  0  0
  135.7986  150.2251  143.4009 C   0  0  0  0  0  0  0  0  0  0  0  0
  136.2526  151.2188  144.4069 C   0  0  0  0  0  0  0  0  0  0  0  0
  135.5909  151.7267  145.5088 C   0  0  0  0  0  0  0  0  0  0  0  0
  138.4214  151.3877  143.8448 C   0  0  0  0  0  0  0  0  0  0  0  0
  134.8812  151.1915  146.4332 C   0  0  0  0  0  0  0  0  0  0  0  0
  136.6164  149.5436  141.0856 C   0  0  0  0  0  0  0  0  0  0  0  0
  137.5499  151.5235  144.6309 C   0  0  0  0  0  0  0  0  0  0  0  0
  135.1661  152.8717  145.4929 O   0  0  0  0  0  0  0  0  0  0  0  0
  1  2  1  0
  2  3  2  0
  2  4  1  0
  4  5  2  0
  5  6  1  0
  6  7  1  0
  7  8  1  0
  8  9  1  0
  5 10  1  0
  9 11  1  0
  3 12  1  0
  6 12  2  0
  8 13  2  0
 10 13  2  0
  9 14  2  0
M  END
$$$$

     RDKit          3D

 14 15  0  0  0  0  0  0  0  0999 V2000
  140.3037  150.2154  139.4789 Cl  0  0  0  0  0  0  0  0  0  0  0  0
  138.6781  150.1864  140.5322 C   0  0  0  0  0  0  0  0  0  0  0  0
  137.6383  149.3835  140.0932 C   0  0  0  0  0  0  0  0  0  0  0  0
  136.4381  149.4572  140.8191 C   0  0  0  0  0  0  0  0  0  0  0  0
  139.1310  150.7531  141.5085 C   0  0  0  0  0  0  0  0  0  0  0  0
  138.1124  150.7972  142.6518 C   0  0  0  0  0  0  0  0  0  0  0  0
  136.8765  150.4821  142.6413 C   0  0  0  0  0  0  0  0  0  0  0  0
  138.7976  151.4294  144.1199 Cl  0  0  0  0  0  0  0  0  0  0  0  0
  136.0045  149.9611  141.8717 C   0  0  0  0  0  0  0  0  0  0  0  0
  136.1378  151.0866  143.8926 C   0  0  0  0  0  0  0  0  0  0  0  0
  135.2289  150.5785  144.5990 C   0  0  0  0  0  0  0  0  0  0  0  0
  134.8656  151.2475  145.8702 C   0  0  0  0  0  0  0  0  0  0  0  0
  135.6272  152.3425  145.8342 C   0  0  0  0  0  0  0  0  0  0  0  0
  136.4921  152.3528  144.5396 C   0  0  0  0  0  0  0  0  0  0  0  0
  1  2  1  0
  2  3  2  0
  3  4  1  0
  2  5  1  0
  5  6  2  0
  6  7  1  0
  6  8  1  0
  4  9  2  0
  7  9  1  0
  7 10  1  0
 10 11  1  0
 11 12  2  0
 12 13  1  0
 10 14  2  0
 13 14  1  0
M  END
$$$$

     RDKit          3D

 14 15  0  0  0  0  0  0  0  0999 V2000
  140.3037  150.2154  139.4789 Cl  0  0  0  0  0  0  0  0  0  0  0  0
  138.6781  150.1864  140.5322 C   0  0  0  0  0  0  0  0  0  0  0  0
  137.6383  149.3835  140.0932 C   0  0  0  0  0  0  0  0  0  0  0  0
  139.0323  150.8827  141.6188 C   0  0  0  0  0  0  0  0  0  0  0  0
  138.0466  150.8334  142.6902 C   0  0  0  0  0  0  0  0  0  0  0  0
  136.8389  150.0632  142.4017 C   0  0  0  0  0  0  0  0  0  0  0  0
  135.7986  150.2251  143.4009 C   0  0  0  0  0  0  0  0  0  0  0  0
  136.2526  151.2188  144.4069 C   0  0  0  0  0  0  0  0  0  0  0  0
  135.5909  151.7267  145.5088 C   0  0  0  0  0  0  0  0  0  0  0  0
  138.4214  151.3877  143.8448 C   0  0  0  0  0  0  0  0  0  0  0  0
  134.8812  151.1915  146.4332 C   0  0  0  0  0  0  0  0  0  0  0  0
  137.5662  151.6013  144.4504 C   0  0  0  0  0  0  0  0  0  0  0  0
  135.3318  152.8504  145.5211 C   0  0  0  0  0  0  0  0  0  0  0  0
  136.5517  149.5076  141.0986 C   0  0  0  0  0  0  0  0  0  0  0  0
  1  2  1  0
  2  3  2  0
  2  4  1  0
  4  5  2  0
  5  6  1  0
  6  7  1  0
  7  8  1  0
  8  9  1  0
  5 10  1  0
  9 11  1  0
  8 12  2  0
 10 12  1  0
  9 13  2  0
  3 14  1  0
  6 14  2  0
M  END
$$$$

     RDKit          3D

 14 15  0  0  0  0  0  0  0  0999 V2000
  140.3037  150.2154  139.4789 Cl  0  0  0  0  0  0  0  0  0  0  0  0
  138.6781  150.1864  140.5322 C   0  0  0  0  0  0  0  0  0  0  0  0
  137.6383  149.3835  140.0932 C   0  0  0  0  0  0  0  0  0  0  0  0
  138.7726  150.9278  141.6514 C   0  0  0  0  0  0  0  0  0  0  0  0
  137.6838  150.8829  142.5424 C   0  0  0  0  0  0  0  0  0  0  0  0
  137.6728  148.8765  138.7108 C   0  0  0  0  0  0  0  0  0  0  0  0
  137.8328  151.4161  143.9059 C   0  0  0  0  0  0  0  0  0  0  0  0
  136.7259  151.6711  144.7363 C   0  0  0  0  0  0  0  0  0  0  0  0
  135.5207  151.1553  144.1970 C   0  0  0  0  0  0  0  0  0  0  0  0
  136.4786  149.6017  140.7705 C   0  0  0  0  0  0  0  0  0  0  0  0
  135.2284  149.1054  140.3364 C   0  0  0  0  0  0  0  0  0  0  0  0
  136.5671  150.2893  142.0591 C   0  0  0  0  0  0  0  0  0  0  0  0
  134.3463  151.4405  144.9150 C   0  0  0  0  0  0  0  0  0  0  0  0
  135.3485  150.4805  142.7033 C   0  0  0  0  0  0  0  0  0  0  0  0
  1  2  1  0
  2  3  1  0
  2  4  2  0
  4  5  1  0
  3  6  1  0
  5  7  1  0
  7  8  2  0
  8  9  1  0
  3 10  2  0
 10 11  1  0
  5 12  2  0
 10 12  1  0
  9 13  1  0
  9 14  2  0
 12 14  1  0
M  END
$$$$

     RDKit          3D

 14 15  0  0  0  0  0  0  0  0999 V2000
  140.3037  150.2154  139.4789 Cl  0  0  0  0  0  0  0  0  0  0  0  0
  138.6781  150.1864  140.5322 C   0  0  0  0  0  0  0  0  0  0  0  0
  137.6383  149.3835  140.0932 C   0  0  0  0  0  0  0  0  0  0  0  0
  139.2398  150.7167  141.5765 C   0  0  0  0  0  0  0  0  0  0  0  0
  138.2210  150.6933  142.6926 C   0  0  0  0  0  0  0  0  0  0  0  0
  138.5246  151.2961  144.0072 C   0  0  0  0  0  0  0  0  0  0  0  0
  137.5101  151.9933  144.4824 C   0  0  0  0  0  0  0  0  0  0  0  0
  136.4881  151.8084  144.2255 C   0  0  0  0  0  0  0  0  0  0  0  0
  136.0392  151.0836  143.2176 C   0  0  0  0  0  0  0  0  0  0  0  0
  136.5439  149.9760  140.3763 C   0  0  0  0  0  0  0  0  0  0  0  0
  136.9353  150.5268  142.2512 C   0  0  0  0  0  0  0  0  0  0  0  0
  135.2371  152.6093  145.1254 C   0  0  0  0  0  0  0  0  0  0  0  0
  136.1111  150.1727  141.5795 C   0  0  0  0  0  0  0  0  0  0  0  0
  135.7236  152.7219  146.4680 C   0  0  0  0  0  0  0  0  0  0  0  0
  1  2  1  0
  2  3  1  0
  2  4  2  0
  4  5  1  0
  5  6  1  0
  6  7  2  0
  7  8  1  0
  8  9  2  0
  3 10  2  0
  5 11  2  0
  9 11  1  0
  8 12  1  0
 10 13  1  0
 11 13  1  0
 12 14  1  0
M  END
$$$$

     RDKit          3D

 14 15  0  0  0  0  0  0  0  0999 V2000
  140.3037  150.2154  139.4789 Cl  0  0  0  0  0  0  0  0  0  0  0  0
  138.6781  150.1864  140.5322 C   0  0  0  0  0  0  0  0  0  0  0  0
  137.6383  149.3835  140.0932 C   0  0  0  0  0  0  0  0  0  0  0  0
  136.4381  149.4572  140.8191 C   0  0  0  0  0  0  0  0  0  0  0  0
  139.1310  150.7531  141.5085 C   0  0  0  0  0  0  0  0  0  0  0  0
  138.1124  150.7972  142.6518 C   0  0  0  0  0  0  0  0  0  0  0  0
  136.8765  150.4821  142.6413 C   0  0  0  0  0  0  0  0  0  0  0  0
  138.4674  151.5134  144.0753 C   0  0  0  0  0  0  0  0  0  0  0  0
  137.4174  151.9366  144.7466 C   0  0  0  0  0  0  0  0  0  0  0  0
  135.3512  149.0156  139.7679 C   0  0  0  0  0  0  0  0  0  0  0  0
  135.9993  150.1277  141.7750 C   0  0  0  0  0  0  0  0  0  0  0  0
  136.2191  151.3232  144.4310 C   0  0  0  0  0  0  0  0  0  0  0  0
  135.9038  150.6216  143.5643 N   0  0  0  0  0  0  0  0  0  0  0  0
  135.2611  151.7680  145.5287 C   0  0  0  0  0  0  0  0  0  0  0  0
  1  2  1  0
  2  3  2  0
  3  4  1  0
  2  5  1  0
  5  6  2  0
  6  7  1  0
  6  8  1  0
  8  9  1  0
  4 10  1  0
  4 11  2  0
  7 11  1  0
  9 12  1  0
  7 13  1  0
 12 13  1  0
 12 14  1  0
M  END
$$$$

     RDKit          3D

 14 15  0  0  0  0  0  0  0  0999 V2000
  139.5547  150.5069  140.4449 C   0  0  0  0  0  0  0  0  0  0  0  0
  139.2163  150.0152  139.3729 C   0  0  0  0  0  0  0  0  0  0  0  0
  138.8578  150.3067  141.5860 C   0  0  0  0  0  0  0  0  0  0  0  0
  137.9790  149.2997  139.2383 C   0  0  0  0  0  0  0  0  0  0  0  0
  139.3342  150.9311  142.8842 C   0  0  0  0  0  0  0  0  0  0  0  0
  138.3151  151.4956  143.6096 C   0  0  0  0  0  0  0  0  0  0  0  0
  137.0061  151.1297  143.2686 C   0  0  0  0  0  0  0  0  0  0  0  0
  137.5336  148.7786  138.0874 C   0  0  0  0  0  0  0  0  0  0  0  0
  135.9954  151.6198  144.2464 C   0  0  0  0  0  0  0  0  0  0  0  0
  137.1883  149.3629  140.4557 C   0  0  0  0  0  0  0  0  0  0  0  0
  135.7673  149.0002  140.3000 C   0  0  0  0  0  0  0  0  0  0  0  0
  137.5803  149.8510  141.5855 C   0  0  0  0  0  0  0  0  0  0  0  0
  136.7673  150.1319  142.6540 N   0  0  0  0  0  0  0  0  0  0  0  0
  136.2878  152.1393  145.3486 O   0  0  0  0  0  0  0  0  0  0  0  0
  1  2  2  0
  1  3  1  0
  2  4  1  0
  3  5  1  0
  5  6  2  0
  6  7  1  0
  4  8  1  0
  7  9  1  0
  4 10  2  0
 10 11  1  0
  3 12  2  0
 10 12  1  0
  7 13  2  0
 12 13  1  0
  9 14  1  0
M  END
$$$$

     RDKit          3D

 14 15  0  0  0  0  0  0  0  0999 V2000
  140.3037  150.2154  139.4789 Cl  0  0  0  0  0  0  0  0  0  0  0  0
  138.6781  150.1864  140.5322 C   0  0  0  0  0  0  0  0  0  0  0  0
  137.6383  149.3835  140.0932 C   0  0  0  0  0  0  0  0  0  0  0  0
  136.4381  149.4572  140.8191 C   0  0  0  0  0  0  0  0  0  0  0  0
  139.1310  150.7531  141.5085 C   0  0  0  0  0  0  0  0  0  0  0  0
  138.1124  150.7972  142.6518 C   0  0  0  0  0  0  0  0  0  0  0  0
  136.8765  150.4821  142.6413 C   0  0  0  0  0  0  0  0  0  0  0  0
  138.7976  151.4294  144.1199 Cl  0  0  0  0  0  0  0  0  0  0  0  0
  136.0045  149.9611  141.8717 C   0  0  0  0  0  0  0  0  0  0  0  0
  136.1378  151.0866  143.8926 C   0  0  0  0  0  0  0  0  0  0  0  0
  135.2289  150.5785  144.5990 C   0  0  0  0  0  0  0  0  0  0  0  0
  134.8656  151.2475  145.8702 C   0  0  0  0  0  0  0  0  0  0  0  0
  135.6272  152.3425  145.8342 C   0  0  0  0  0  0  0  0  0  0  0  0
  136.4893  152.3984  144.7389 C   0  0  0  0  0  0  0  0  0  0  0  0
  1  2  1  0
  2  3  2  0
  3  4  1  0
  2  5  1  0
  5  6  2  0
  6  7  1  0
  6  8  1  0
  4  9  2  0
  7  9  1  0
  7 10  1  0
 10 11  1  0
 11 12  2  0
 12 13  1  0
 10 14  2  0
 13 14  2  0
M  END
$$$$

     RDKit          3D

 14 15  0  0  0  0  0  0  0  0999 V2000
  140.3037  150.2154  139.4789 Cl  0  0  0  0  0  0  0  0  0  0  0  0
  138.6781  150.1864  140.5322 C   0  0  0  0  0  0  0  0  0  0  0  0
  137.6383  149.3835  140.0932 C   0  0  0  0  0  0  0  0  0  0  0  0
  139.0323  150.8827  141.6188 C   0  0  0  0  0  0  0  0  0  0  0  0
  138.0466  150.8334  142.6902 C   0  0  0  0  0  0  0  0  0  0  0  0
  136.8389  150.0632  142.4017 C   0  0  0  0  0  0  0  0  0  0  0  0
  135.7986  150.2251  143.4009 C   0  0  0  0  0  0  0  0  0  0  0  0
  136.2526  151.2188  144.4069 C   0  0  0  0  0  0  0  0  0  0  0  0
  135.5909  151.7267  145.5088 C   0  0  0  0  0  0  0  0  0  0  0  0
  138.4214  151.3877  143.8448 C   0  0  0  0  0  0  0  0  0  0  0  0
  134.8812  151.1915  146.4332 C   0  0  0  0  0  0  0  0  0  0  0  0
  136.6164  149.5436  141.0856 C   0  0  0  0  0  0  0  0  0  0  0  0
  137.5499  151.5235  144.6309 C   0  0  0  0  0  0  0  0  0  0  0  0
  135.1661  152.8717  145.4929 C   0  0  0  0  0  0  0  0  0  0  0  0
  1  2  1  0
  2  3  2  0
  2  4  1  0
  4  5  2  0
  5  6  1  0
  6  7  1  0
  7  8  1  0
  8  9  1  0
  5 10  1  0
  9 11  1  0
  3 12  1  0
  6 12  2  0
  8 13  2  0
 10 13  2  0
  9 14  2  0
M  END
$$$$

     RDKit          3D

 14 15  0  0  0  0  0  0  0  0999 V2000
  139.5547  150.5069  140.4449 C   0  0  0  0  0  0  0  0  0  0  0  0
  139.2163  150.0152  139.3729 C   0  0  0  0  0  0  0  0  0  0  0  0
  138.8578  150.3067  141.5860 C   0  0  0  0  0  0  0  0  0  0  0  0
  139.2256  150.3492  142.8903 C   0  0  0  0  0  0  0  0  0  0  0  0
  138.5566  151.2848  143.6742 C   0  0  0  0  0  0  0  0  0  0  0  0
  137.8562  149.4560  139.3195 C   0  0  0  0  0  0  0  0  0  0  0  0
  137.4734  151.5824  143.4210 C   0  0  0  0  0  0  0  0  0  0  0  0
  137.4481  150.1790  141.6418 C   0  0  0  0  0  0  0  0  0  0  0  0
  136.6101  152.4735  144.2788 C   0  0  0  0  0  0  0  0  0  0  0  0
  135.5614  152.0148  145.0671 C   0  0  0  0  0  0  0  0  0  0  0  0
  136.7920  149.8116  140.2490 C   0  0  0  0  0  0  0  0  0  0  0  0
  136.6853  150.8841  142.4605 N   0  0  0  0  0  0  0  0  0  0  0  0
  135.5060  150.8379  145.4918 C   0  0  0  0  0  0  0  0  0  0  0  0
  135.4207  153.3688  145.9776 C   0  0  0  0  0  0  0  0  0  0  0  0
  1  2  2  0
  1  3  1  0
  3  4  1  0
  4  5  2  0
  2  6  1  0
  5  7  1  0
  3  8  2  0
  7  9  1  0
  9 10  1  0
  6 11  2  0
  8 11  1  0
  7 12  2  0
  8 12  1  0
 10 13  1  0
 10 14  1  0
M  END
$$$$

     RDKit          3D

 14 15  0  0  0  0  0  0  0  0999 V2000
  140.3037  150.2154  139.4789 Cl  0  0  0  0  0  0  0  0  0  0  0  0
  138.6781  150.1864  140.5322 C   0  0  0  0  0  0  0  0  0  0  0  0
  137.6383  149.3835  140.0932 C   0  0  0  0  0  0  0  0  0  0  0  0
  139.0323  150.8827  141.6188 C   0  0  0  0  0  0  0  0  0  0  0  0
  138.0466  150.8334  142.6902 C   0  0  0  0  0  0  0  0  0  0  0  0
  136.8389  150.0632  142.4017 C   0  0  0  0  0  0  0  0  0  0  0  0
  135.7986  150.2251  143.4009 C   0  0  0  0  0  0  0  0  0  0  0  0
  136.2526  151.2188  144.4069 C   0  0  0  0  0  0  0  0  0  0  0  0
  135.5909  151.7267  145.5088 C   0  0  0  0  0  0  0  0  0  0  0  0
  138.4214  151.3877  143.8448 C   0  0  0  0  0  0  0  0  0  0  0  0
  134.8812  151.1915  146.4332 C   0  0  0  0  0  0  0  0  0  0  0  0
  136.6164  149.5436  141.0856 C   0  0  0  0  0  0  0  0  0  0  0  0
  137.5499  151.5235  144.6309 N   0  0  0  0  0  0  0  0  0  0  0  0
  135.3480  152.8832  145.4151 O   0  0  0  0  0  0  0  0  0  0  0  0
  1  2  1  0
  2  3  2  0
  2  4  1  0
  4  5  2  0
  5  6  1  0
  6  7  1  0
  7  8  1  0
  8  9  1  0
  5 10  1  0
  9 11  1  0
  3 12  1  0
  6 12  2  0
  8 13  2  0
 10 13  1  0
  9 14  2  0
M  END
$$$$

     RDKit          3D

 14 15  0  0  0  0  0  0  0  0999 V2000
  138.9995  149.7631  140.3651 C   0  0  0  0  0  0  0  0  0  0  0  0
  138.7139  149.5446  139.1245 C   0  0  0  0  0  0  0  0  0  0  0  0
  138.1832  150.1045  141.2841 C   0  0  0  0  0  0  0  0  0  0  0  0
  137.3206  149.5905  138.6810 C   0  0  0  0  0  0  0  0  0  0  0  0
  136.9836  149.1476  137.4587 O   0  0  0  0  0  0  0  0  0  0  0  0
  138.6053  150.6473  142.5904 C   0  0  0  0  0  0  0  0  0  0  0  0
  136.8415  150.3585  141.0404 C   0  0  0  0  0  0  0  0  0  0  0  0
  135.9113  150.6663  142.1137 C   0  0  0  0  0  0  0  0  0  0  0  0
  136.3384  149.9012  139.7731 C   0  0  0  0  0  0  0  0  0  0  0  0
  136.4545  151.0761  143.3350 C   0  0  0  0  0  0  0  0  0  0  0  0
  140.0518  150.6026  142.9625 C   0  0  0  0  0  0  0  0  0  0  0  0
  135.4655  151.4979  144.4505 C   0  0  0  0  0  0  0  0  0  0  0  0
  135.8719  152.0129  145.5121 C   0  0  0  0  0  0  0  0  0  0  0  0
  137.8348  151.0461  143.5876 C   0  0  0  0  0  0  0  0  0  0  0  0
  1  2  2  0
  1  3  1  0
  2  4  1  0
  4  5  1  0
  3  6  1  0
  3  7  2  0
  7  8  1  0
  4  9  2  0
  7  9  1  0
  8 10  2  0
  6 11  1  0
 10 12  1  0
 12 13  2  0
  6 14  2  0
 10 14  1  0
M  END
$$$$

     RDKit          3D

 14 15  0  0  0  0  0  0  0  0999 V2000
  140.3037  150.2154  139.4789 Cl  0  0  0  0  0  0  0  0  0  0  0  0
  138.6781  150.1864  140.5322 C   0  0  0  0  0  0  0  0  0  0  0  0
  137.6383  149.3835  140.0932 C   0  0  0  0  0  0  0  0  0  0  0  0
  139.0323  150.8827  141.6188 C   0  0  0  0  0  0  0  0  0  0  0  0
  138.0466  150.8334  142.6902 C   0  0  0  0  0  0  0  0  0  0  0  0
  136.8389  150.0632  142.4017 C   0  0  0  0  0  0  0  0  0  0  0  0
  137.3721  148.8666  138.9192 C   0  0  0  0  0  0  0  0  0  0  0  0
  135.8191  150.2593  143.4713 C   0  0  0  0  0  0  0  0  0  0  0  0
  136.5317  149.5941  141.1688 C   0  0  0  0  0  0  0  0  0  0  0  0
  136.3479  150.4962  144.7255 C   0  0  0  0  0  0  0  0  0  0  0  0
  136.6099  151.7670  144.9572 C   0  0  0  0  0  0  0  0  0  0  0  0
  137.7563  152.2662  144.3840 C   0  0  0  0  0  0  0  0  0  0  0  0
  138.6117  151.5703  143.6192 C   0  0  0  0  0  0  0  0  0  0  0  0
  136.1692  152.5226  145.9279 O   0  0  0  0  0  0  0  0  0  0  0  0
  1  2  1  0
  2  3  2  0
  2  4  1  0
  4  5  2  0
  5  6  1  0
  3  7  1  0
  6  8  1  0
  3  9  1  0
  6  9  2  0
  8 10  1  0
 10 11  1  0
 11 12  1  0
  5 13  1  0
 12 13  1  0
 11 14  1  0
M  END
$$$$

     RDKit          3D

 14 15  0  0  0  0  0  0  0  0999 V2000
  139.5547  150.5069  140.4449 C   0  0  0  0  0  0  0  0  0  0  0  0
  139.2163  150.0152  139.3729 C   0  0  0  0  0  0  0  0  0  0  0  0
  138.8578  150.3067  141.5860 C   0  0  0  0  0  0  0  0  0  0  0  0
  139.2256  150.3492  142.8903 C   0  0  0  0  0  0  0  0  0  0  0  0
  138.5566  151.2848  143.6742 C   0  0  0  0  0  0  0  0  0  0  0  0
  137.8562  149.4560  139.3195 C   0  0  0  0  0  0  0  0  0  0  0  0
  137.4734  151.5824  143.4210 C   0  0  0  0  0  0  0  0  0  0  0  0
  137.4481  150.1790  141.6418 C   0  0  0  0  0  0  0  0  0  0  0  0
  136.6101  152.4735  144.2788 C   0  0  0  0  0  0  0  0  0  0  0  0
  135.5614  152.0148  145.0671 C   0  0  0  0  0  0  0  0  0  0  0  0
  136.7920  149.8116  140.2490 C   0  0  0  0  0  0  0  0  0  0  0  0
  136.6569  150.9110  142.4429 C   0  0  0  0  0  0  0  0  0  0  0  0
  135.4861  150.8502  145.4933 C   0  0  0  0  0  0  0  0  0  0  0  0
  135.0362  153.2424  145.9035 C   0  0  0  0  0  0  0  0  0  0  0  0
  1  2  2  0
  1  3  1  0
  3  4  1  0
  4  5  2  0
  2  6  1  0
  5  7  1  0
  3  8  2  0
  7  9  1  0
  9 10  1  0
  6 11  2  0
  8 11  1  0
  7 12  2  0
  8 12  1  0
 10 13  2  0
 10 14  1  0
M  END
$$$$

     RDKit          3D

 14 15  0  0  0  0  0  0  0  0999 V2000
  139.3434  149.9921  140.5876 C   0  0  0  0  0  0  0  0  0  0  0  0
  138.9518  149.9236  139.3657 C   0  0  0  0  0  0  0  0  0  0  0  0
  138.6168  150.1115  141.6414 C   0  0  0  0  0  0  0  0  0  0  0  0
  137.1898  149.8671  141.8329 C   0  0  0  0  0  0  0  0  0  0  0  0
  136.5148  149.7637  140.5812 C   0  0  0  0  0  0  0  0  0  0  0  0
  139.1786  150.4016  143.1316 C   0  0  0  0  0  0  0  0  0  0  0  0
  138.3339  151.1454  143.8950 C   0  0  0  0  0  0  0  0  0  0  0  0
  136.9941  151.0549  143.8223 C   0  0  0  0  0  0  0  0  0  0  0  0
  136.3286  150.3864  142.7838 C   0  0  0  0  0  0  0  0  0  0  0  0
  136.2090  151.6992  144.9256 C   0  0  0  0  0  0  0  0  0  0  0  0
  136.7048  152.6503  145.8061 C   0  0  0  0  0  0  0  0  0  0  0  0
  135.2535  149.4790  140.4178 C   0  0  0  0  0  0  0  0  0  0  0  0
  139.7437  149.9327  138.2171 C   0  0  0  0  0  0  0  0  0  0  0  0
  137.4300  149.6717  139.2450 C   0  0  0  0  0  0  0  0  0  0  0  0
  1  2  2  0
  1  3  1  0
  3  4  1  0
  4  5  2  0
  3  6  1  0
  6  7  2  0
  7  8  1  0
  4  9  1  0
  8  9  2  0
  8 10  1  0
 10 11  1  0
  5 12  1  0
  2 13  1  0
  2 14  1  0
  5 14  1  0
M  END
$$$$

     RDKit          3D

 14 15  0  0  0  0  0  0  0  0999 V2000
  140.3037  150.2154  139.4789 Cl  0  0  0  0  0  0  0  0  0  0  0  0
  138.6781  150.1864  140.5322 C   0  0  0  0  0  0  0  0  0  0  0  0
  137.6383  149.3835  140.0932 C   0  0  0  0  0  0  0  0  0  0  0  0
  139.0323  150.8827  141.6188 C   0  0  0  0  0  0  0  0  0  0  0  0
  138.0466  150.8334  142.6902 C   0  0  0  0  0  0  0  0  0  0  0  0
  136.8389  150.0632  142.4017 C   0  0  0  0  0  0  0  0  0  0  0  0
  135.7986  150.2251  143.4009 C   0  0  0  0  0  0  0  0  0  0  0  0
  136.2526  151.2188  144.4069 C   0  0  0  0  0  0  0  0  0  0  0  0
  135.5909  151.7267  145.5088 C   0  0  0  0  0  0  0  0  0  0  0  0
  138.4214  151.3877  143.8448 C   0  0  0  0  0  0  0  0  0  0  0  0
  135.5944  153.1618  145.7396 C   0  0  0  0  0  0  0  0  0  0  0  0
  137.4546  148.8677  138.8984 C   0  0  0  0  0  0  0  0  0  0  0  0
  137.4037  151.3841  144.8148 C   0  0  0  0  0  0  0  0  0  0  0  0
  136.4946  149.4563  141.0684 C   0  0  0  0  0  0  0  0  0  0  0  0
  1  2  1  0
  2  3  2  0
  2  4  1  0
  4  5  2  0
  5  6  1  0
  6  7  1  0
  7  8  1  0
  8  9  1  0
  5 10  1  0
  9 11  1  0
  3 12  1  0
  8 13  1  0
 10 13  1  0
  3 14  1  0
  6 14  2  0
M  END
$$$$

     RDKit          3D

 14 15  0  0  0  0  0  0  0  0999 V2000
  140.3037  150.2154  139.4789 Cl  0  0  0  0  0  0  0  0  0  0  0  0
  138.6781  150.1864  140.5322 C   0  0  0  0  0  0  0  0  0  0  0  0
  137.6383  149.3835  140.0932 C   0  0  0  0  0  0  0  0  0  0  0  0
  139.0323  150.8827  141.6188 C   0  0  0  0  0  0  0  0  0  0  0  0
  138.0466  150.8334  142.6902 C   0  0  0  0  0  0  0  0  0  0  0  0
  136.8389  150.0632  142.4017 C   0  0  0  0  0  0  0  0  0  0  0  0
  137.3721  148.8666  138.9192 C   0  0  0  0  0  0  0  0  0  0  0  0
  135.8191  150.2593  143.4713 C   0  0  0  0  0  0  0  0  0  0  0  0
  136.5317  149.5941  141.1688 C   0  0  0  0  0  0  0  0  0  0  0  0
  136.3479  150.4962  144.7255 C   0  0  0  0  0  0  0  0  0  0  0  0
  136.6099  151.7670  144.9572 C   0  0  0  0  0  0  0  0  0  0  0  0
  137.7563  152.2662  144.3840 C   0  0  0  0  0  0  0  0  0  0  0  0
  138.3877  151.7034  143.7307 C   0  0  0  0  0  0  0  0  0  0  0  0
  136.0398  152.6030  146.0366 C   0  0  0  0  0  0  0  0  0  0  0  0
  1  2  1  0
  2  3  2  0
  2  4  1  0
  4  5  2  0
  5  6  1  0
  3  7  1  0
  6  8  1  0
  3  9  1  0
  6  9  2  0
  8 10  1  0
 10 11  1  0
 11 12  1  0
  5 13  1  0
 12 13  2  0
 11 14  1  0
M  END
$$$$

     RDKit          3D

 14 15  0  0  0  0  0  0  0  0999 V2000
  138.9995  149.7631  140.3651 C   0  0  0  0  0  0  0  0  0  0  0  0
  138.7139  149.5446  139.1245 C   0  0  0  0  0  0  0  0  0  0  0  0
  138.1832  150.1045  141.2841 C   0  0  0  0  0  0  0  0  0  0  0  0
  137.3206  149.5905  138.6810 C   0  0  0  0  0  0  0  0  0  0  0  0
  136.9836  149.1476  137.4587 O   0  0  0  0  0  0  0  0  0  0  0  0
  138.6053  150.6473  142.5904 C   0  0  0  0  0  0  0  0  0  0  0  0
  136.8415  150.3585  141.0404 C   0  0  0  0  0  0  0  0  0  0  0  0
  135.9113  150.6663  142.1137 C   0  0  0  0  0  0  0  0  0  0  0  0
  136.3384  149.9012  139.7731 C   0  0  0  0  0  0  0  0  0  0  0  0
  136.4545  151.0761  143.3350 C   0  0  0  0  0  0  0  0  0  0  0  0
  140.0518  150.6026  142.9625 C   0  0  0  0  0  0  0  0  0  0  0  0
  135.4655  151.4979  144.4505 C   0  0  0  0  0  0  0  0  0  0  0  0
  135.8719  152.0129  145.5121 N   0  0  0  0  0  0  0  0  0  0  0  0
  137.7520  151.1010  143.5855 C   0  0  0  0  0  0  0  0  0  0  0  0
  1  2  2  0
  1  3  1  0
  2  4  1  0
  4  5  1  0
  3  6  1  0
  3  7  2  0
  7  8  1  0
  4  9  2  0
  7  9  1  0
  8 10  2  0
  6 11  1  0
 10 12  1  0
 12 13  2  0
  6 14  2  0
 10 14  1  0
M  END
$$$$

     RDKit          3D

 14 15  0  0  0  0  0  0  0  0999 V2000
  140.3037  150.2154  139.4789 Cl  0  0  0  0  0  0  0  0  0  0  0  0
  138.6781  150.1864  140.5322 C   0  0  0  0  0  0  0  0  0  0  0  0
  137.6383  149.3835  140.0932 C   0  0  0  0  0  0  0  0  0  0  0  0
  136.4381  149.4572  140.8191 C   0  0  0  0  0  0  0  0  0  0  0  0
  139.1310  150.7531  141.5085 C   0  0  0  0  0  0  0  0  0  0  0  0
  138.1124  150.7972  142.6518 C   0  0  0  0  0  0  0  0  0  0  0  0
  136.8765  150.4821  142.6413 C   0  0  0  0  0  0  0  0  0  0  0  0
  138.4674  151.5134  144.0753 C   0  0  0  0  0  0  0  0  0  0  0  0
  137.4174  151.9366  144.7466 C   0  0  0  0  0  0  0  0  0  0  0  0
  135.3512  149.0156  139.7679 C   0  0  0  0  0  0  0  0  0  0  0  0
  135.9993  150.1277  141.7750 C   0  0  0  0  0  0  0  0  0  0  0  0
  136.2191  151.3232  144.4310 C   0  0  0  0  0  0  0  0  0  0  0  0
  135.9038  150.6216  143.5643 N   0  0  0  0  0  0  0  0  0  0  0  0
  135.3418  151.7491  145.5427 C   0  0  0  0  0  0  0  0  0  0  0  0
  1  2  1  0
  2  3  2  0
  3  4  1  0
  2  5  1  0
  5  6  2  0
  6  7  1  0
  6  8  1  0
  8  9  1  0
  4 10  1  0
  4 11  2  0
  7 11  1  0
  9 12  1  0
  7 13  2  0
 12 13  1  0
 12 14  1  0
M  END
$$$$

     RDKit          3D

 14 15  0  0  0  0  0  0  0  0999 V2000
  138.9995  149.7631  140.3651 C   0  0  0  0  0  0  0  0  0  0  0  0
  138.7139  149.5446  139.1245 C   0  0  0  0  0  0  0  0  0  0  0  0
  138.1832  150.1045  141.2841 C   0  0  0  0  0  0  0  0  0  0  0  0
  137.3206  149.5905  138.6810 C   0  0  0  0  0  0  0  0  0  0  0  0
  136.9836  149.1476  137.4587 O   0  0  0  0  0  0  0  0  0  0  0  0
  138.6053  150.6473  142.5904 C   0  0  0  0  0  0  0  0  0  0  0  0
  136.8415  150.3585  141.0404 C   0  0  0  0  0  0  0  0  0  0  0  0
  135.9113  150.6663  142.1137 C   0  0  0  0  0  0  0  0  0  0  0  0
  136.3384  149.9012  139.7731 C   0  0  0  0  0  0  0  0  0  0  0  0
  136.4545  151.0761  143.3350 C   0  0  0  0  0  0  0  0  0  0  0  0
  140.0518  150.6026  142.9625 C   0  0  0  0  0  0  0  0  0  0  0  0
  135.4655  151.4979  144.4505 C   0  0  0  0  0  0  0  0  0  0  0  0
  136.2618  151.9072  145.6730 C   0  0  0  0  0  0  0  0  0  0  0  0
  137.8202  150.9915  143.5562 C   0  0  0  0  0  0  0  0  0  0  0  0
  1  2  2  0
  1  3  1  0
  2  4  1  0
  4  5  1  0
  3  6  1  0
  3  7  2  0
  7  8  1  0
  4  9  2  0
  7  9  1  0
  8 10  2  0
  6 11  1  0
 10 12  1  0
 12 13  1  0
  6 14  2  0
 10 14  1  0
M  END
$$$$

     RDKit          3D

 14 15  0  0  0  0  0  0  0  0999 V2000
  139.3434  149.9921  140.5876 C   0  0  0  0  0  0  0  0  0  0  0  0
  138.9518  149.9236  139.3657 C   0  0  0  0  0  0  0  0  0  0  0  0
  138.6168  150.1115  141.6414 C   0  0  0  0  0  0  0  0  0  0  0  0
  137.5735  149.8761  139.0597 C   0  0  0  0  0  0  0  0  0  0  0  0
  137.0914  149.5004  137.8161 O   0  0  0  0  0  0  0  0  0  0  0  0
  139.0590  150.5596  142.9738 C   0  0  0  0  0  0  0  0  0  0  0  0
  138.1364  151.1072  143.9767 C   0  0  0  0  0  0  0  0  0  0  0  0
  136.7209  149.8949  140.1652 C   0  0  0  0  0  0  0  0  0  0  0  0
  136.8292  151.0000  143.5346 C   0  0  0  0  0  0  0  0  0  0  0  0
  135.9713  151.5462  144.6145 C   0  0  0  0  0  0  0  0  0  0  0  0
  137.1904  150.2264  141.4843 C   0  0  0  0  0  0  0  0  0  0  0  0
  136.4141  150.5086  142.3600 C   0  0  0  0  0  0  0  0  0  0  0  0
  135.0446  151.2222  145.1352 C   0  0  0  0  0  0  0  0  0  0  0  0
  134.2497  151.8684  146.2227 C   0  0  0  0  0  0  0  0  0  0  0  0
  1  2  2  0
  1  3  1  0
  2  4  1  0
  4  5  1  0
  3  6  1  0
  6  7  2  0
  4  8  2  0
  7  9  1  0
  9 10  1  0
  3 11  2  0
  8 11  1  0
  9 12  2  0
 11 12  1  0
 10 13  2  3
 13 14  1  0
M  END
$$$$

     RDKit          3D

 14 15  0  0  0  0  0  0  0  0999 V2000
  140.3037  150.2154  139.4789 Cl  0  0  0  0  0  0  0  0  0  0  0  0
  138.6781  150.1864  140.5322 C   0  0  0  0  0  0  0  0  0  0  0  0
  137.6383  149.3835  140.0932 C   0  0  0  0  0  0  0  0  0  0  0  0
  138.8659  150.7191  141.4521 C   0  0  0  0  0  0  0  0  0  0  0  0
  136.5657  149.5899  140.7699 C   0  0  0  0  0  0  0  0  0  0  0  0
  136.4133  150.3723  141.9098 C   0  0  0  0  0  0  0  0  0  0  0  0
  135.2492  150.5994  142.7383 C   0  0  0  0  0  0  0  0  0  0  0  0
  135.5657  151.2833  144.0142 C   0  0  0  0  0  0  0  0  0  0  0  0
  137.9483  151.0133  142.3747 C   0  0  0  0  0  0  0  0  0  0  0  0
  137.9377  151.7301  143.7274 C   0  0  0  0  0  0  0  0  0  0  0  0
  134.3353  151.5149  144.8713 C   0  0  0  0  0  0  0  0  0  0  0  0
  134.7174  152.2368  146.1570 C   0  0  0  0  0  0  0  0  0  0  0  0
  136.9930  151.7459  144.2919 C   0  0  0  0  0  0  0  0  0  0  0  0
  135.3939  151.8569  146.9845 C   0  0  0  0  0  0  0  0  0  0  0  0
  1  2  1  0
  2  3  2  0
  2  4  1  0
  3  5  1  0
  5  6  2  0
  6  7  1  0
  7  8  2  0
  4  9  2  0
  6  9  1  0
  9 10  1  0
  8 11  1  0
 11 12  1  0
  8 13  1  0
 10 13  2  0
 12 14  2  0
M  END
$$$$

     RDKit          3D

 14 15  0  0  0  0  0  0  0  0999 V2000
  140.3037  150.2154  139.4789 Cl  0  0  0  0  0  0  0  0  0  0  0  0
  138.6781  150.1864  140.5322 C   0  0  0  0  0  0  0  0  0  0  0  0
  137.6383  149.3835  140.0932 C   0  0  0  0  0  0  0  0  0  0  0  0
  138.8659  150.7191  141.4521 C   0  0  0  0  0  0  0  0  0  0  0  0
  138.3205  150.9402  142.2995 C   0  0  0  0  0  0  0  0  0  0  0  0
  136.6328  149.6178  140.7913 C   0  0  0  0  0  0  0  0  0  0  0  0
  135.2653  149.2034  140.3255 C   0  0  0  0  0  0  0  0  0  0  0  0
  138.5419  151.6237  143.7074 C   0  0  0  0  0  0  0  0  0  0  0  0
  137.5348  151.9408  144.4598 C   0  0  0  0  0  0  0  0  0  0  0  0
  136.2762  151.4477  144.1630 C   0  0  0  0  0  0  0  0  0  0  0  0
  136.0020  150.6725  142.9640 C   0  0  0  0  0  0  0  0  0  0  0  0
  136.6669  150.4792  142.1159 C   0  0  0  0  0  0  0  0  0  0  0  0
  135.1466  151.6122  145.0269 C   0  0  0  0  0  0  0  0  0  0  0  0
  135.3832  152.3900  146.1494 C   0  0  0  0  0  0  0  0  0  0  0  0
  1  2  1  0
  2  3  2  0
  2  4  1  0
  4  5  2  0
  3  6  1  0
  6  7  1  0
  5  8  1  0
  8  9  2  0
  9 10  1  0
 10 11  1  0
  5 12  1  0
  6 12  1  0
 11 12  2  0
 10 13  1  0
 13 14  1  0
M  END
$$$$

     RDKit          3D

 14 15  0  0  0  0  0  0  0  0999 V2000
  138.7095  151.1467  142.6277 C   0  0  0  0  0  0  0  0  0  0  0  0
  138.5278  151.9381  143.5113 C   0  0  0  0  0  0  0  0  0  0  0  0
  137.3840  151.6610  144.3967 C   0  0  0  0  0  0  0  0  0  0  0  0
  136.7653  150.3888  144.2991 C   0  0  0  0  0  0  0  0  0  0  0  0
  138.1237  149.8686  142.3074 C   0  0  0  0  0  0  0  0  0  0  0  0
  138.4285  149.0768  141.2819 C   0  0  0  0  0  0  0  0  0  0  0  0
  138.5072  149.8311  140.0610 C   0  0  0  0  0  0  0  0  0  0  0  0
  137.0799  149.5075  143.3557 C   0  0  0  0  0  0  0  0  0  0  0  0
  136.9991  152.5859  145.4369 C   0  0  0  0  0  0  0  0  0  0  0  0
  139.2332  150.9075  139.8798 C   0  0  0  0  0  0  0  0  0  0  0  0
  139.7495  151.6196  138.9841 C   0  0  0  0  0  0  0  0  0  0  0  0
  139.4305  151.2823  141.2581 C   0  0  0  0  0  0  0  0  0  0  0  0
  135.6782  152.5749  145.9628 C   0  0  0  0  0  0  0  0  0  0  0  0
  135.0107  151.5094  146.1229 C   0  0  0  0  0  0  0  0  0  0  0  0
  1  2  1  0
  2  3  2  0
  3  4  1  0
  1  5  2  0
  5  6  1  0
  6  7  1  0
  4  8  2  0
  5  8  1  0
  3  9  1  0
  7 10  1  0
 10 11  2  0
  1 12  1  0
 10 12  1  0
  9 13  1  0
 13 14  1  0
M  END
$$$$

     RDKit          3D

 14 15  0  0  0  0  0  0  0  0999 V2000
  140.3037  150.2154  139.4789 Cl  0  0  0  0  0  0  0  0  0  0  0  0
  138.6781  150.1864  140.5322 C   0  0  0  0  0  0  0  0  0  0  0  0
  137.6383  149.3835  140.0932 C   0  0  0  0  0  0  0  0  0  0  0  0
  139.0323  150.8827  141.6188 C   0  0  0  0  0  0  0  0  0  0  0  0
  138.0466  150.8334  142.6902 C   0  0  0  0  0  0  0  0  0  0  0  0
  136.8389  150.0632  142.4017 C   0  0  0  0  0  0  0  0  0  0  0  0
  137.3721  148.8666  138.9192 C   0  0  0  0  0  0  0  0  0  0  0  0
  135.8191  150.2593  143.4713 C   0  0  0  0  0  0  0  0  0  0  0  0
  136.4102  151.2471  144.4811 C   0  0  0  0  0  0  0  0  0  0  0  0
  136.4192  149.5096  141.1554 C   0  0  0  0  0  0  0  0  0  0  0  0
  135.8374  151.6322  145.5997 C   0  0  0  0  0  0  0  0  0  0  0  0
  137.9500  151.3616  143.9870 C   0  0  0  0  0  0  0  0  0  0  0  0
  136.0192  151.1058  146.7010 O   0  0  0  0  0  0  0  0  0  0  0  0
  135.2375  152.8811  145.5853 O   0  0  0  0  0  0  0  0  0  0  0  0
  1  2  1  0
  2  3  2  0
  2  4  1  0
  4  5  2  0
  5  6  1  0
  3  7  1  0
  6  8  1  0
  8  9  1  0
  3 10  1  0
  6 10  2  0
  9 11  1  0
  5 12  1  0
  9 12  1  0
 11 13  2  0
 11 14  1  0
M  END
$$$$

     RDKit          3D

 14 15  0  0  0  0  0  0  0  0999 V2000
  140.3037  150.2154  139.4789 Cl  0  0  0  0  0  0  0  0  0  0  0  0
  138.6781  150.1864  140.5322 C   0  0  0  0  0  0  0  0  0  0  0  0
  137.6383  149.3835  140.0932 C   0  0  0  0  0  0  0  0  0  0  0  0
  139.0323  150.8827  141.6188 C   0  0  0  0  0  0  0  0  0  0  0  0
  136.4854  149.4748  141.0069 C   0  0  0  0  0  0  0  0  0  0  0  0
  136.6936  150.4331  141.9090 C   0  0  0  0  0  0  0  0  0  0  0  0
  135.4547  150.7046  142.8858 C   0  0  0  0  0  0  0  0  0  0  0  0
  138.0289  151.0266  142.4136 C   0  0  0  0  0  0  0  0  0  0  0  0
  135.9457  151.4973  144.0838 C   0  0  0  0  0  0  0  0  0  0  0  0
  135.2879  151.9781  145.1011 C   0  0  0  0  0  0  0  0  0  0  0  0
  137.3797  151.6542  144.1433 C   0  0  0  0  0  0  0  0  0  0  0  0
  135.7242  153.0144  145.9050 C   0  0  0  0  0  0  0  0  0  0  0  0
  138.4370  151.6104  143.4901 C   0  0  0  0  0  0  0  0  0  0  0  0
  134.9743  153.9392  146.6079 C   0  0  0  0  0  0  0  0  0  0  0  0
  1  2  1  0
  2  3  2  0
  2  4  1  0
  3  5  1  0
  5  6  2  0
  6  7  1  0
  4  8  2  0
  6  8  1  0
  7  9  1  0
  9 10  1  0
  9 11  2  0
 10 12  1  0
  8 13  1  0
 11 13  1  0
 12 14  1  0
M  END
$$$$

     RDKit          3D

 14 15  0  0  0  0  0  0  0  0999 V2000
  138.7095  151.1467  142.6277 C   0  0  0  0  0  0  0  0  0  0  0  0
  138.5278  151.9381  143.5113 C   0  0  0  0  0  0  0  0  0  0  0  0
  137.3840  151.6610  144.3967 C   0  0  0  0  0  0  0  0  0  0  0  0
  136.7653  150.3888  144.2991 C   0  0  0  0  0  0  0  0  0  0  0  0
  138.1237  149.8686  142.3074 C   0  0  0  0  0  0  0  0  0  0  0  0
  138.4285  149.0768  141.2819 C   0  0  0  0  0  0  0  0  0  0  0  0
  138.5072  149.8311  140.0610 C   0  0  0  0  0  0  0  0  0  0  0  0
  137.0799  149.5075  143.3557 C   0  0  0  0  0  0  0  0  0  0  0  0
  136.9991  152.5859  145.4369 C   0  0  0  0  0  0  0  0  0  0  0  0
  139.2332  150.9075  139.8798 C   0  0  0  0  0  0  0  0  0  0  0  0
  139.7495  151.6196  138.9841 C   0  0  0  0  0  0  0  0  0  0  0  0
  135.6453  152.6444  145.8852 C   0  0  0  0  0  0  0  0  0  0  0  0
  139.9234  151.5485  141.4729 C   0  0  0  0  0  0  0  0  0  0  0  0
  137.8766  149.7415  138.9898 O   0  0  0  0  0  0  0  0  0  0  0  0
  1  2  1  0
  2  3  2  0
  3  4  1  0
  1  5  2  0
  5  6  1  0
  6  7  1  0
  4  8  2  0
  5  8  1  0
  3  9  1  0
  7 10  1  0
 10 11  2  0
  9 12  1  0
  1 13  1  0
 10 13  1  0
  7 14  2  0
M  END
$$$$

     RDKit          3D

 14 15  0  0  0  0  0  0  0  0999 V2000
  140.3037  150.2154  139.4789 Cl  0  0  0  0  0  0  0  0  0  0  0  0
  138.6781  150.1864  140.5322 C   0  0  0  0  0  0  0  0  0  0  0  0
  137.6383  149.3835  140.0932 C   0  0  0  0  0  0  0  0  0  0  0  0
  139.0323  150.8827  141.6188 C   0  0  0  0  0  0  0  0  0  0  0  0
  136.6579  149.6431  140.8207 C   0  0  0  0  0  0  0  0  0  0  0  0
  136.5497  150.4278  141.9965 C   0  0  0  0  0  0  0  0  0  0  0  0
  135.3882  150.6526  142.8569 C   0  0  0  0  0  0  0  0  0  0  0  0
  138.0282  151.0034  142.4335 C   0  0  0  0  0  0  0  0  0  0  0  0
  135.6146  150.7565  144.1686 C   0  0  0  0  0  0  0  0  0  0  0  0
  136.8345  150.8255  144.7805 C   0  0  0  0  0  0  0  0  0  0  0  0
  134.6131  151.1255  145.0786 C   0  0  0  0  0  0  0  0  0  0  0  0
  138.1481  151.7124  143.7954 C   0  0  0  0  0  0  0  0  0  0  0  0
  134.2327  152.5068  145.4023 C   0  0  0  0  0  0  0  0  0  0  0  0
  135.2464  153.1692  146.2667 C   0  0  0  0  0  0  0  0  0  0  0  0
  1  2  1  0
  2  3  2  0
  2  4  1  0
  3  5  1  0
  5  6  2  0
  6  7  1  0
  4  8  2  0
  6  8  1  0
  7  9  1  0
  9 10  1  0
  9 11  2  3
  8 12  1  0
 10 12  1  0
 11 13  1  0
 13 14  1  0
M  END
$$$$

     RDKit          3D

 14 15  0  0  0  0  0  0  0  0999 V2000
  140.3037  150.2154  139.4789 Cl  0  0  0  0  0  0  0  0  0  0  0  0
  138.6781  150.1864  140.5322 C   0  0  0  0  0  0  0  0  0  0  0  0
  137.6383  149.3835  140.0932 C   0  0  0  0  0  0  0  0  0  0  0  0
  139.0323  150.8827  141.6188 C   0  0  0  0  0  0  0  0  0  0  0  0
  136.4854  149.4748  141.0069 C   0  0  0  0  0  0  0  0  0  0  0  0
  135.2458  148.9977  140.4692 C   0  0  0  0  0  0  0  0  0  0  0  0
  136.7840  150.4342  141.8404 C   0  0  0  0  0  0  0  0  0  0  0  0
  135.5883  150.7248  142.8957 C   0  0  0  0  0  0  0  0  0  0  0  0
  136.1528  151.2897  144.1909 C   0  0  0  0  0  0  0  0  0  0  0  0
  137.9971  151.0609  142.3141 C   0  0  0  0  0  0  0  0  0  0  0  0
  136.2734  150.6388  145.2122 C   0  0  0  0  0  0  0  0  0  0  0  0
  136.1913  152.6828  144.4533 C   0  0  0  0  0  0  0  0  0  0  0  0
  136.5909  153.0635  145.8759 C   0  0  0  0  0  0  0  0  0  0  0  0
  136.2541  152.0199  146.4658 C   0  0  0  0  0  0  0  0  0  0  0  0
  1  2  1  0
  2  3  2  0
  2  4  1  0
  3  5  1  0
  5  6  1  0
  5  7  2  0
  7  8  1  0
  8  9  1  0
  4 10  2  0
  7 10  1  0
  9 11  2  0
  9 12  1  0
 12 13  1  0
 11 14  1  0
 13 14  1  0
M  END
$$$$

     RDKit          3D

 14 15  0  0  0  0  0  0  0  0999 V2000
  139.5547  150.5069  140.4449 C   0  0  0  0  0  0  0  0  0  0  0  0
  139.2163  150.0152  139.3729 C   0  0  0  0  0  0  0  0  0  0  0  0
  138.8578  150.3067  141.5860 C   0  0  0  0  0  0  0  0  0  0  0  0
  137.9790  149.2997  139.2383 C   0  0  0  0  0  0  0  0  0  0  0  0
  139.3342  150.9311  142.8842 C   0  0  0  0  0  0  0  0  0  0  0  0
  138.3151  151.4956  143.6096 C   0  0  0  0  0  0  0  0  0  0  0  0
  137.0061  151.1297  143.2686 C   0  0  0  0  0  0  0  0  0  0  0  0
  137.5336  148.7786  138.0874 C   0  0  0  0  0  0  0  0  0  0  0  0
  135.9954  151.6198  144.2464 C   0  0  0  0  0  0  0  0  0  0  0  0
  137.1883  149.3629  140.4557 C   0  0  0  0  0  0  0  0  0  0  0  0
  135.7673  149.0002  140.3000 C   0  0  0  0  0  0  0  0  0  0  0  0
  137.6500  149.9648  141.6164 C   0  0  0  0  0  0  0  0  0  0  0  0
  135.4213  150.9566  145.1533 C   0  0  0  0  0  0  0  0  0  0  0  0
  136.7278  150.1992  142.6208 N   0  0  0  0  0  0  0  0  0  0  0  0
  1  2  2  0
  1  3  1  0
  2  4  1  0
  3  5  1  0
  5  6  2  0
  6  7  1  0
  4  8  1  0
  7  9  1  0
  4 10  2  0
 10 11  1  0
  3 12  2  0
 10 12  1  0
  9 13  1  0
  7 14  2  0
 12 14  1  0
M  END
$$$$

     RDKit          3D

 14 15  0  0  0  0  0  0  0  0999 V2000
  140.3037  150.2154  139.4789 Cl  0  0  0  0  0  0  0  0  0  0  0  0
  138.6781  150.1864  140.5322 C   0  0  0  0  0  0  0  0  0  0  0  0
  137.6383  149.3835  140.0932 C   0  0  0  0  0  0  0  0  0  0  0  0
  138.8659  150.7191  141.4521 C   0  0  0  0  0  0  0  0  0  0  0  0
  136.4770  149.4747  140.9574 C   0  0  0  0  0  0  0  0  0  0  0  0
  135.2970  148.9129  140.3578 C   0  0  0  0  0  0  0  0  0  0  0  0
  136.6537  150.3298  141.9841 C   0  0  0  0  0  0  0  0  0  0  0  0
  135.4964  150.4951  142.9729 C   0  0  0  0  0  0  0  0  0  0  0  0
  136.0374  151.3461  144.1549 C   0  0  0  0  0  0  0  0  0  0  0  0
  137.8724  151.0001  142.4107 C   0  0  0  0  0  0  0  0  0  0  0  0
  135.1061  151.6912  145.2158 C   0  0  0  0  0  0  0  0  0  0  0  0
  138.1526  151.7876  143.5845 C   0  0  0  0  0  0  0  0  0  0  0  0
  135.6388  152.6614  146.1149 C   0  0  0  0  0  0  0  0  0  0  0  0
  137.0403  151.7165  144.2564 N   0  0  0  0  0  0  0  0  0  0  0  0
  1  2  1  0
  2  3  2  0
  2  4  1  0
  3  5  1  0
  5  6  1  0
  5  7  2  0
  7  8  1  0
  8  9  2  0
  4 10  2  0
  7 10  1  0
  9 11  1  0
 10 12  1  0
 11 13  1  0
  9 14  1  0
 12 14  2  0
M  END
$$$$

     RDKit          3D

 14 15  0  0  0  0  0  0  0  0999 V2000
  139.3434  149.9921  140.5876 C   0  0  0  0  0  0  0  0  0  0  0  0
  138.9518  149.9236  139.3657 C   0  0  0  0  0  0  0  0  0  0  0  0
  138.6168  150.1115  141.6414 C   0  0  0  0  0  0  0  0  0  0  0  0
  137.1898  149.8671  141.8329 C   0  0  0  0  0  0  0  0  0  0  0  0
  136.5148  149.7637  140.5812 C   0  0  0  0  0  0  0  0  0  0  0  0
  139.1786  150.4016  143.1316 C   0  0  0  0  0  0  0  0  0  0  0  0
  138.3339  151.1454  143.8950 C   0  0  0  0  0  0  0  0  0  0  0  0
  136.9941  151.0549  143.8223 C   0  0  0  0  0  0  0  0  0  0  0  0
  136.3317  150.3439  142.8413 C   0  0  0  0  0  0  0  0  0  0  0  0
  139.7579  149.9603  138.2100 C   0  0  0  0  0  0  0  0  0  0  0  0
  137.4432  149.7015  139.3431 C   0  0  0  0  0  0  0  0  0  0  0  0
  136.2586  151.7308  144.8385 C   0  0  0  0  0  0  0  0  0  0  0  0
  135.0291  151.3799  145.2392 C   0  0  0  0  0  0  0  0  0  0  0  0
  136.6852  152.9018  145.3844 C   0  0  0  0  0  0  0  0  0  0  0  0
  1  2  2  0
  1  3  1  0
  3  4  1  0
  4  5  2  0
  3  6  1  0
  6  7  2  0
  7  8  1  0
  4  9  1  0
  8  9  1  0
  2 10  1  0
  2 11  1  0
  5 11  1  0
  8 12  1  0
 12 13  2  0
 12 14  1  0
M  END
$$$$

     RDKit          3D

 14 15  0  0  0  0  0  0  0  0999 V2000
  140.3037  150.2154  139.4789 Cl  0  0  0  0  0  0  0  0  0  0  0  0
  138.6781  150.1864  140.5322 C   0  0  0  0  0  0  0  0  0  0  0  0
  137.6383  149.3835  140.0932 C   0  0  0  0  0  0  0  0  0  0  0  0
  139.2398  150.7167  141.5765 C   0  0  0  0  0  0  0  0  0  0  0  0
  138.2210  150.6933  142.6926 C   0  0  0  0  0  0  0  0  0  0  0  0
  138.5246  151.2961  144.0072 C   0  0  0  0  0  0  0  0  0  0  0  0
  137.5101  151.9933  144.4824 C   0  0  0  0  0  0  0  0  0  0  0  0
  136.4881  151.8084  144.2255 C   0  0  0  0  0  0  0  0  0  0  0  0
  135.2401  152.4558  144.9698 C   0  0  0  0  0  0  0  0  0  0  0  0
  136.2072  150.8782  143.0668 C   0  0  0  0  0  0  0  0  0  0  0  0
  134.5498  151.8905  145.7648 C   0  0  0  0  0  0  0  0  0  0  0  0
  137.1399  150.4950  142.3934 C   0  0  0  0  0  0  0  0  0  0  0  0
  137.3644  148.8721  138.9867 C   0  0  0  0  0  0  0  0  0  0  0  0
  136.6811  149.8095  141.1600 N   0  0  0  0  0  0  0  0  0  0  0  0
  1  2  1  0
  2  3  1  0
  2  4  2  0
  4  5  1  0
  5  6  1  0
  6  7  2  0
  7  8  1  0
  8  9  1  0
  8 10  2  0
  9 11  2  0
  5 12  2  0
 10 12  1  0
  3 13  1  0
  3 14  2  0
 12 14  1  0
M  END
$$$$

     RDKit          3D

 15 16  0  0  0  0  0  0  0  0999 V2000
  139.3434  149.9921  140.5876 C   0  0  0  0  0  0  0  0  0  0  0  0
  138.9518  149.9236  139.3657 C   0  0  0  0  0  0  0  0  0  0  0  0
  138.6168  150.1115  141.6414 C   0  0  0  0  0  0  0  0  0  0  0  0
  137.5735  149.8761  139.0597 C   0  0  0  0  0  0  0  0  0  0  0  0
  137.0914  149.5004  137.8161 O   0  0  0  0  0  0  0  0  0  0  0  0
  139.0590  150.5596  142.9738 C   0  0  0  0  0  0  0  0  0  0  0  0
  138.1364  151.1072  143.9767 C   0  0  0  0  0  0  0  0  0  0  0  0
  137.0458  151.2460  143.6025 C   0  0  0  0  0  0  0  0  0  0  0  0
  136.5091  150.9100  142.2928 C   0  0  0  0  0  0  0  0  0  0  0  0
  136.7935  149.7151  140.1400 C   0  0  0  0  0  0  0  0  0  0  0  0
  137.1566  150.2691  141.4675 C   0  0  0  0  0  0  0  0  0  0  0  0
  136.0968  152.0255  144.7283 C   0  0  0  0  0  0  0  0  0  0  0  0
  135.2503  151.2352  145.4570 C   0  0  0  0  0  0  0  0  0  0  0  0
  135.2333  149.8163  145.5138 N   0  0  0  0  0  0  0  0  0  0  0  0
  134.4475  151.8476  146.5575 C   0  0  0  0  0  0  0  0  0  0  0  0
  1  2  2  0
  1  3  1  0
  2  4  1  0
  4  5  1  0
  3  6  1  0
  6  7  2  0
  7  8  1  0
  8  9  2  0
  4 10  2  0
  3 11  2  0
  9 11  1  0
 10 11  1  0
  8 12  1  0
 12 13  2  3
 13 14  1  0
 13 15  1  0
M  END
$$$$

     RDKit          3D

 15 16  0  0  0  0  0  0  0  0999 V2000
  139.5547  150.5069  140.4449 C   0  0  0  0  0  0  0  0  0  0  0  0
  139.2163  150.0152  139.3729 C   0  0  0  0  0  0  0  0  0  0  0  0
  138.8578  150.3067  141.5860 C   0  0  0  0  0  0  0  0  0  0  0  0
  137.9790  149.2997  139.2383 C   0  0  0  0  0  0  0  0  0  0  0  0
  137.5546  148.8181  137.9582 C   0  0  0  0  0  0  0  0  0  0  0  0
  139.2075  150.9117  142.9013 C   0  0  0  0  0  0  0  0  0  0  0  0
  138.1326  151.1492  143.9187 C   0  0  0  0  0  0  0  0  0  0  0  0
  136.9487  150.4969  143.4896 C   0  0  0  0  0  0  0  0  0  0  0  0
  137.1876  149.3174  140.4598 C   0  0  0  0  0  0  0  0  0  0  0  0
  135.9281  150.8638  144.3735 C   0  0  0  0  0  0  0  0  0  0  0  0
  135.7716  148.9261  140.2633 C   0  0  0  0  0  0  0  0  0  0  0  0
  136.2266  152.0328  145.1797 C   0  0  0  0  0  0  0  0  0  0  0  0
  137.6283  149.8596  141.6222 C   0  0  0  0  0  0  0  0  0  0  0  0
  135.2240  152.7939  145.8658 C   0  0  0  0  0  0  0  0  0  0  0  0
  136.6852  149.8953  142.6555 N   0  0  0  0  0  0  0  0  0  0  0  0
  1  2  2  0
  1  3  1  0
  2  4  1  0
  4  5  1  0
  3  6  1  0
  6  7  2  0
  7  8  1  0
  4  9  2  0
  8 10  1  0
  9 11  1  0
 10 12  1  0
  3 13  2  0
  9 13  1  0
 12 14  1  0
  8 15  2  0
 13 15  1  0
M  END
$$$$

     RDKit          3D

 15 16  0  0  0  0  0  0  0  0999 V2000
  139.3434  149.9921  140.5876 C   0  0  0  0  0  0  0  0  0  0  0  0
  138.9518  149.9236  139.3657 C   0  0  0  0  0  0  0  0  0  0  0  0
  138.6168  150.1115  141.6414 C   0  0  0  0  0  0  0  0  0  0  0  0
  137.1898  149.8671  141.8329 C   0  0  0  0  0  0  0  0  0  0  0  0
  136.5148  149.7637  140.5812 C   0  0  0  0  0  0  0  0  0  0  0  0
  139.1786  150.4016  143.1316 C   0  0  0  0  0  0  0  0  0  0  0  0
  138.3339  151.1454  143.8950 C   0  0  0  0  0  0  0  0  0  0  0  0
  136.9941  151.0549  143.8223 C   0  0  0  0  0  0  0  0  0  0  0  0
  136.3317  150.3439  142.8413 C   0  0  0  0  0  0  0  0  0  0  0  0
  136.2135  151.6662  144.9481 C   0  0  0  0  0  0  0  0  0  0  0  0
  135.2430  149.4933  140.4303 C   0  0  0  0  0  0  0  0  0  0  0  0
  139.7332  149.9279  138.2130 C   0  0  0  0  0  0  0  0  0  0  0  0
  137.4537  149.6654  139.2633 C   0  0  0  0  0  0  0  0  0  0  0  0
  134.9584  151.6971  144.9876 C   0  0  0  0  0  0  0  0  0  0  0  0
  136.9575  152.5109  145.7070 C   0  0  0  0  0  0  0  0  0  0  0  0
  1  2  2  0
  1  3  1  0
  3  4  1  0
  4  5  2  0
  3  6  1  0
  6  7  2  0
  7  8  1  0
  4  9  1  0
  8  9  2  0
  8 10  1  0
  5 11  1  0
  2 12  1  0
  2 13  1  0
  5 13  1  0
 10 14  2  0
 10 15  1  0
M  END
$$$$

     RDKit          3D

 15 16  0  0  0  0  0  0  0  0999 V2000
  139.5547  150.5069  140.4449 C   0  0  0  0  0  0  0  0  0  0  0  0
  139.2163  150.0152  139.3729 C   0  0  0  0  0  0  0  0  0  0  0  0
  138.8578  150.3067  141.5860 C   0  0  0  0  0  0  0  0  0  0  0  0
  137.9790  149.2997  139.2383 C   0  0  0  0  0  0  0  0  0  0  0  0
  139.3342  150.9311  142.8842 C   0  0  0  0  0  0  0  0  0  0  0  0
  138.3151  151.4956  143.6096 C   0  0  0  0  0  0  0  0  0  0  0  0
  137.0061  151.1297  143.2686 C   0  0  0  0  0  0  0  0  0  0  0  0
  137.5336  148.7786  138.0874 C   0  0  0  0  0  0  0  0  0  0  0  0
  135.9954  151.6198  144.2464 C   0  0  0  0  0  0  0  0  0  0  0  0
  137.1883  149.3629  140.4557 C   0  0  0  0  0  0  0  0  0  0  0  0
  135.7673  149.0002  140.3000 C   0  0  0  0  0  0  0  0  0  0  0  0
  137.5803  149.8510  141.5855 C   0  0  0  0  0  0  0  0  0  0  0  0
  136.7673  150.1319  142.6540 N   0  0  0  0  0  0  0  0  0  0  0  0
  135.9770  152.8694  144.6636 C   0  0  0  0  0  0  0  0  0  0  0  0
  135.5494  153.2032  145.9588 C   0  0  0  0  0  0  0  0  0  0  0  0
  1  2  2  0
  1  3  1  0
  2  4  1  0
  3  5  1  0
  5  6  2  0
  6  7  1  0
  4  8  1  0
  7  9  1  0
  4 10  2  0
 10 11  1  0
  3 12  2  0
 10 12  1  0
  7 13  2  0
 12 13  1  0
  9 14  2  3
 14 15  1  0
M  END
$$$$

     RDKit          3D

 15 16  0  0  0  0  0  0  0  0999 V2000
  140.3037  150.2154  139.4789 Cl  0  0  0  0  0  0  0  0  0  0  0  0
  138.6781  150.1864  140.5322 C   0  0  0  0  0  0  0  0  0  0  0  0
  137.6383  149.3835  140.0932 C   0  0  0  0  0  0  0  0  0  0  0  0
  139.0323  150.8827  141.6188 C   0  0  0  0  0  0  0  0  0  0  0  0
  136.4854  149.4748  141.0069 C   0  0  0  0  0  0  0  0  0  0  0  0
  135.2458  148.9977  140.4692 C   0  0  0  0  0  0  0  0  0  0  0  0
  136.7840  150.4342  141.8404 C   0  0  0  0  0  0  0  0  0  0  0  0
  135.5883  150.7248  142.8957 C   0  0  0  0  0  0  0  0  0  0  0  0
  136.2040  151.5704  144.0279 C   0  0  0  0  0  0  0  0  0  0  0  0
  138.0014  151.0574  142.2988 C   0  0  0  0  0  0  0  0  0  0  0  0
  135.5217  151.8034  145.1992 C   0  0  0  0  0  0  0  0  0  0  0  0
  134.8615  151.0203  145.8713 C   0  0  0  0  0  0  0  0  0  0  0  0
  138.0933  151.8625  143.6199 C   0  0  0  0  0  0  0  0  0  0  0  0
  137.2932  152.0653  144.2420 N   0  0  0  0  0  0  0  0  0  0  0  0
  135.5758  153.2739  145.6184 C   0  0  0  0  0  0  0  0  0  0  0  0
  1  2  1  0
  2  3  2  0
  2  4  1  0
  3  5  1  0
  5  6  1  0
  5  7  2  0
  7  8  1  0
  8  9  1  0
  4 10  2  0
  7 10  1  0
  9 11  1  0
 11 12  2  0
 10 13  1  0
  9 14  2  0
 13 14  1  0
 11 15  1  0
M  END
$$$$

     RDKit          3D

 15 16  0  0  0  0  0  0  0  0999 V2000
  139.3434  149.9921  140.5876 C   0  0  0  0  0  0  0  0  0  0  0  0
  138.9518  149.9236  139.3657 C   0  0  0  0  0  0  0  0  0  0  0  0
  138.6168  150.1115  141.6414 C   0  0  0  0  0  0  0  0  0  0  0  0
  137.5735  149.8761  139.0597 C   0  0  0  0  0  0  0  0  0  0  0  0
  137.0914  149.5004  137.8161 O   0  0  0  0  0  0  0  0  0  0  0  0
  139.0590  150.5596  142.9738 C   0  0  0  0  0  0  0  0  0  0  0  0
  138.1364  151.1072  143.9767 C   0  0  0  0  0  0  0  0  0  0  0  0
  136.7209  149.8949  140.1652 C   0  0  0  0  0  0  0  0  0  0  0  0
  137.0150  151.3003  143.6749 C   0  0  0  0  0  0  0  0  0  0  0  0
  136.1148  151.9408  144.6661 C   0  0  0  0  0  0  0  0  0  0  0  0
  137.1871  150.2514  141.4841 C   0  0  0  0  0  0  0  0  0  0  0  0
  136.2784  150.6811  142.5736 C   0  0  0  0  0  0  0  0  0  0  0  0
  135.2861  151.2628  145.5054 C   0  0  0  0  0  0  0  0  0  0  0  0
  135.2890  149.8415  145.6456 O   0  0  0  0  0  0  0  0  0  0  0  0
  134.4577  151.9884  146.4672 C   0  0  0  0  0  0  0  0  0  0  0  0
  1  2  2  0
  1  3  1  0
  2  4  1  0
  4  5  1  0
  3  6  1  0
  6  7  2  0
  4  8  2  0
  7  9  1  0
  9 10  1  0
  3 11  2  0
  8 11  1  0
  9 12  2  0
 11 12  1  0
 10 13  2  3
 13 14  1  0
 13 15  1  0
M  END
$$$$

     RDKit          3D

 15 16  0  0  0  0  0  0  0  0999 V2000
  139.3434  149.9921  140.5876 C   0  0  0  0  0  0  0  0  0  0  0  0
  138.9518  149.9236  139.3657 C   0  0  0  0  0  0  0  0  0  0  0  0
  138.6168  150.1115  141.6414 C   0  0  0  0  0  0  0  0  0  0  0  0
  137.1898  149.8671  141.8329 C   0  0  0  0  0  0  0  0  0  0  0  0
  136.5148  149.7637  140.5812 C   0  0  0  0  0  0  0  0  0  0  0  0
  139.1786  150.4016  143.1316 C   0  0  0  0  0  0  0  0  0  0  0  0
  138.3339  151.1454  143.8950 C   0  0  0  0  0  0  0  0  0  0  0  0
  136.9941  151.0549  143.8223 C   0  0  0  0  0  0  0  0  0  0  0  0
  139.7963  149.9608  138.2189 C   0  0  0  0  0  0  0  0  0  0  0  0
  136.3162  150.3304  142.8082 C   0  0  0  0  0  0  0  0  0  0  0  0
  136.1670  151.7234  145.0681 C   0  0  0  0  0  0  0  0  0  0  0  0
  134.9082  151.4837  145.1364 C   0  0  0  0  0  0  0  0  0  0  0  0
  137.4594  149.7005  139.3232 C   0  0  0  0  0  0  0  0  0  0  0  0
  136.8637  152.3719  145.9579 C   0  0  0  0  0  0  0  0  0  0  0  0
  134.2074  151.4101  146.3308 C   0  0  0  0  0  0  0  0  0  0  0  0
  1  2  2  0
  1  3  1  0
  3  4  1  0
  4  5  2  0
  3  6  1  0
  6  7  2  0
  7  8  1  0
  2  9  1  0
  4 10  1  0
  8 10  2  0
  8 11  1  0
 11 12  2  3
  2 13  1  0
  5 13  1  0
 11 14  1  0
 12 15  1  0
M  END
$$$$

     RDKit          3D

 15 16  0  0  0  0  0  0  0  0999 V2000
  138.7095  151.1467  142.6277 C   0  0  0  0  0  0  0  0  0  0  0  0
  138.5278  151.9381  143.5113 C   0  0  0  0  0  0  0  0  0  0  0  0
  137.3840  151.6610  144.3967 C   0  0  0  0  0  0  0  0  0  0  0  0
  136.7653  150.3888  144.2991 C   0  0  0  0  0  0  0  0  0  0  0  0
  138.1237  149.8686  142.3074 C   0  0  0  0  0  0  0  0  0  0  0  0
  138.4285  149.0768  141.2819 C   0  0  0  0  0  0  0  0  0  0  0  0
  138.5072  149.8311  140.0610 C   0  0  0  0  0  0  0  0  0  0  0  0
  137.0799  149.5075  143.3557 C   0  0  0  0  0  0  0  0  0  0  0  0
  136.9991  152.5859  145.4369 C   0  0  0  0  0  0  0  0  0  0  0  0
  139.2332  150.9075  139.8798 C   0  0  0  0  0  0  0  0  0  0  0  0
  139.7495  151.6196  138.9841 C   0  0  0  0  0  0  0  0  0  0  0  0
  139.7903  151.4486  141.5134 C   0  0  0  0  0  0  0  0  0  0  0  0
  137.8885  149.7207  138.9832 O   0  0  0  0  0  0  0  0  0  0  0  0
  135.6705  152.5855  145.9472 C   0  0  0  0  0  0  0  0  0  0  0  0
  134.9873  151.5311  146.0956 C   0  0  0  0  0  0  0  0  0  0  0  0
  1  2  1  0
  2  3  2  0
  3  4  1  0
  1  5  2  0
  5  6  1  0
  6  7  1  0
  4  8  2  0
  5  8  1  0
  3  9  1  0
  7 10  1  0
 10 11  2  0
  1 12  1  0
 10 12  1  0
  7 13  2  0
  9 14  1  0
 14 15  2  0
M  END
$$$$

     RDKit          3D

 15 16  0  0  0  0  0  0  0  0999 V2000
  138.9995  149.7631  140.3651 C   0  0  0  0  0  0  0  0  0  0  0  0
  138.7139  149.5446  139.1245 C   0  0  0  0  0  0  0  0  0  0  0  0
  138.1832  150.1045  141.2841 C   0  0  0  0  0  0  0  0  0  0  0  0
  137.3206  149.5905  138.6810 C   0  0  0  0  0  0  0  0  0  0  0  0
  136.9836  149.1476  137.4587 O   0  0  0  0  0  0  0  0  0  0  0  0
  138.6053  150.6473  142.5904 C   0  0  0  0  0  0  0  0  0  0  0  0
  136.8415  150.3585  141.0404 C   0  0  0  0  0  0  0  0  0  0  0  0
  135.9113  150.6663  142.1137 C   0  0  0  0  0  0  0  0  0  0  0  0
  134.5600  150.6789  141.8549 C   0  0  0  0  0  0  0  0  0  0  0  0
  136.6643  150.9761  143.3047 C   0  0  0  0  0  0  0  0  0  0  0  0
  136.4415  149.8109  139.3541 C   0  0  0  0  0  0  0  0  0  0  0  0
  135.6325  151.3916  144.4209 C   0  0  0  0  0  0  0  0  0  0  0  0
  134.4508  151.4516  144.5806 C   0  0  0  0  0  0  0  0  0  0  0  0
  137.9680  150.9685  143.4319 C   0  0  0  0  0  0  0  0  0  0  0  0
  136.4376  151.9282  145.7405 C   0  0  0  0  0  0  0  0  0  0  0  0
  1  2  2  0
  1  3  1  0
  2  4  1  0
  4  5  1  0
  3  6  1  0
  3  7  2  0
  7  8  1  0
  8  9  1  0
  8 10  2  0
  4 11  2  0
  7 11  1  0
 10 12  1  0
 12 13  2  0
  6 14  1  0
 10 14  1  0
 12 15  1  0
M  END
$$$$

     RDKit          3D

 15 16  0  0  0  0  0  0  0  0999 V2000
  140.3037  150.2154  139.4789 Cl  0  0  0  0  0  0  0  0  0  0  0  0
  138.6781  150.1864  140.5322 C   0  0  0  0  0  0  0  0  0  0  0  0
  137.6383  149.3835  140.0932 C   0  0  0  0  0  0  0  0  0  0  0  0
  139.0323  150.8827  141.6188 C   0  0  0  0  0  0  0  0  0  0  0  0
  138.0466  150.8334  142.6902 C   0  0  0  0  0  0  0  0  0  0  0  0
  136.8389  150.0632  142.4017 C   0  0  0  0  0  0  0  0  0  0  0  0
  137.3721  148.8666  138.9192 C   0  0  0  0  0  0  0  0  0  0  0  0
  135.8191  150.2593  143.4713 C   0  0  0  0  0  0  0  0  0  0  0  0
  135.9769  151.0327  144.4113 C   0  0  0  0  0  0  0  0  0  0  0  0
  135.0144  151.4302  145.3753 C   0  0  0  0  0  0  0  0  0  0  0  0
  133.9735  150.9230  145.7450 C   0  0  0  0  0  0  0  0  0  0  0  0
  137.2420  151.6074  144.7961 C   0  0  0  0  0  0  0  0  0  0  0  0
  138.3904  151.4412  143.7552 C   0  0  0  0  0  0  0  0  0  0  0  0
  136.4973  149.4483  141.1662 C   0  0  0  0  0  0  0  0  0  0  0  0
  135.2745  152.4840  145.7449 O   0  0  0  0  0  0  0  0  0  0  0  0
  1  2  1  0
  2  3  2  0
  2  4  1  0
  4  5  2  0
  5  6  1  0
  3  7  1  0
  6  8  1  0
  8  9  2  0
  9 10  1  0
 10 11  1  0
  9 12  1  0
  5 13  1  0
 12 13  2  0
  3 14  1  0
  6 14  2  0
 10 15  2  0
M  END
$$$$

     RDKit          3D

 15 16  0  0  0  0  0  0  0  0999 V2000
  140.3037  150.2154  139.4789 Cl  0  0  0  0  0  0  0  0  0  0  0  0
  138.6781  150.1864  140.5322 C   0  0  0  0  0  0  0  0  0  0  0  0
  137.6383  149.3835  140.0932 C   0  0  0  0  0  0  0  0  0  0  0  0
  139.0323  150.8827  141.6188 C   0  0  0  0  0  0  0  0  0  0  0  0
  138.0466  150.8334  142.6902 C   0  0  0  0  0  0  0  0  0  0  0  0
  136.8389  150.0632  142.4017 C   0  0  0  0  0  0  0  0  0  0  0  0
  135.7986  150.2251  143.4009 C   0  0  0  0  0  0  0  0  0  0  0  0
  136.2526  151.2188  144.4069 C   0  0  0  0  0  0  0  0  0  0  0  0
  135.5909  151.7267  145.5088 C   0  0  0  0  0  0  0  0  0  0  0  0
  138.4214  151.3877  143.8448 C   0  0  0  0  0  0  0  0  0  0  0  0
  134.8812  151.1915  146.4332 C   0  0  0  0  0  0  0  0  0  0  0  0
  137.4353  151.4945  144.8264 C   0  0  0  0  0  0  0  0  0  0  0  0
  135.4744  153.2411  145.4516 C   0  0  0  0  0  0  0  0  0  0  0  0
  137.4721  148.8570  138.9033 C   0  0  0  0  0  0  0  0  0  0  0  0
  136.4978  149.5420  141.0944 C   0  0  0  0  0  0  0  0  0  0  0  0
  1  2  1  0
  2  3  2  0
  2  4  1  0
  4  5  2  0
  5  6  1  0
  6  7  1  0
  7  8  1  0
  8  9  1  0
  5 10  1  0
  9 11  1  0
  8 12  2  0
 10 12  1  0
  9 13  2  0
  3 14  1  0
  3 15  1  0
  6 15  1  0
M  END
$$$$

     RDKit          3D

 15 17  0  0  0  0  0  0  0  0999 V2000
  139.3434  149.9921  140.5876 C   0  0  0  0  0  0  0  0  0  0  0  0
  138.9518  149.9236  139.3657 C   0  0  0  0  0  0  0  0  0  0  0  0
  138.6168  150.1115  141.6414 C   0  0  0  0  0  0  0  0  0  0  0  0
  137.1898  149.8671  141.8329 C   0  0  0  0  0  0  0  0  0  0  0  0
  136.5148  149.7637  140.5812 C   0  0  0  0  0  0  0  0  0  0  0  0
  139.1786  150.4016  143.1316 C   0  0  0  0  0  0  0  0  0  0  0  0
  138.3339  151.1454  143.8950 C   0  0  0  0  0  0  0  0  0  0  0  0
  137.2141  149.6946  139.2603 C   0  0  0  0  0  0  0  0  0  0  0  0
  137.0026  151.1648  143.8765 C   0  0  0  0  0  0  0  0  0  0  0  0
  136.3624  150.6021  143.0919 C   0  0  0  0  0  0  0  0  0  0  0  0
  136.1383  151.9448  145.1357 C   0  0  0  0  0  0  0  0  0  0  0  0
  136.6212  153.1948  145.5742 C   0  0  0  0  0  0  0  0  0  0  0  0
  135.0680  151.5871  145.6273 C   0  0  0  0  0  0  0  0  0  0  0  0
  134.6381  152.2888  146.6214 C   0  0  0  0  0  0  0  0  0  0  0  0
  135.3597  153.5208  146.8069 C   0  0  0  0  0  0  0  0  0  0  0  0
  1  2  2  0
  1  3  1  0
  3  4  1  0
  4  5  2  0
  3  6  1  0
  6  7  2  0
  2  8  1  0
  5  8  1  0
  7  9  1  0
  4 10  1  0
  9 10  2  0
  9 11  1  0
 11 12  1  0
 11 13  2  0
 13 14  1  0
 12 15  1  0
 14 15  1  0
M  END
$$$$

     RDKit          3D

 15 16  0  0  0  0  0  0  0  0999 V2000
  140.3037  150.2154  139.4789 Cl  0  0  0  0  0  0  0  0  0  0  0  0
  138.6781  150.1864  140.5322 C   0  0  0  0  0  0  0  0  0  0  0  0
  137.6383  149.3835  140.0932 C   0  0  0  0  0  0  0  0  0  0  0  0
  139.0323  150.8827  141.6188 C   0  0  0  0  0  0  0  0  0  0  0  0
  136.4854  149.4748  141.0069 C   0  0  0  0  0  0  0  0  0  0  0  0
  135.2458  148.9977  140.4692 C   0  0  0  0  0  0  0  0  0  0  0  0
  136.7840  150.4342  141.8404 C   0  0  0  0  0  0  0  0  0  0  0  0
  135.5883  150.7248  142.8957 C   0  0  0  0  0  0  0  0  0  0  0  0
  136.2040  151.5704  144.0279 C   0  0  0  0  0  0  0  0  0  0  0  0
  138.0095  151.0404  142.3385 C   0  0  0  0  0  0  0  0  0  0  0  0
  135.5477  151.7975  145.2179 C   0  0  0  0  0  0  0  0  0  0  0  0
  134.9191  150.9929  145.8973 C   0  0  0  0  0  0  0  0  0  0  0  0
  137.4048  152.0812  143.9447 C   0  0  0  0  0  0  0  0  0  0  0  0
  135.6936  153.1325  145.7441 C   0  0  0  0  0  0  0  0  0  0  0  0
  138.3297  151.8441  143.3179 N   0  0  0  0  0  0  0  0  0  0  0  0
  1  2  1  0
  2  3  2  0
  2  4  1  0
  3  5  1  0
  5  6  1  0
  5  7  2  0
  7  8  1  0
  8  9  1  0
  4 10  2  0
  7 10  1  0
  9 11  1  0
 11 12  2  0
  9 13  2  0
 11 14  1  0
 10 15  1  0
 13 15  1  0
M  END
$$$$

     RDKit          3D

 15 16  0  0  0  0  0  0  0  0999 V2000
  138.9995  149.7631  140.3651 C   0  0  0  0  0  0  0  0  0  0  0  0
  138.7139  149.5446  139.1245 C   0  0  0  0  0  0  0  0  0  0  0  0
  138.1832  150.1045  141.2841 C   0  0  0  0  0  0  0  0  0  0  0  0
  137.3206  149.5905  138.6810 C   0  0  0  0  0  0  0  0  0  0  0  0
  136.9836  149.1476  137.4587 O   0  0  0  0  0  0  0  0  0  0  0  0
  138.6053  150.6473  142.5904 C   0  0  0  0  0  0  0  0  0  0  0  0
  136.8415  150.3585  141.0404 C   0  0  0  0  0  0  0  0  0  0  0  0
  135.9113  150.6663  142.1137 C   0  0  0  0  0  0  0  0  0  0  0  0
  134.5600  150.6789  141.8549 C   0  0  0  0  0  0  0  0  0  0  0  0
  136.7319  150.9827  142.9796 C   0  0  0  0  0  0  0  0  0  0  0  0
  136.5210  149.7863  139.7487 C   0  0  0  0  0  0  0  0  0  0  0  0
  135.7251  151.5724  144.2724 C   0  0  0  0  0  0  0  0  0  0  0  0
  134.5385  151.5724  144.4823 C   0  0  0  0  0  0  0  0  0  0  0  0
  136.3544  152.0748  145.6089 C   0  0  0  0  0  0  0  0  0  0  0  0
  138.0240  151.0896  143.4215 C   0  0  0  0  0  0  0  0  0  0  0  0
  1  2  2  0
  1  3  1  0
  2  4  1  0
  4  5  1  0
  3  6  1  0
  3  7  2  0
  7  8  1  0
  8  9  1  0
  8 10  2  0
  4 11  2  0
  7 11  1  0
 10 12  1  0
 12 13  2  0
 12 14  1  0
  6 15  2  0
 10 15  1  0
M  END
$$$$

     RDKit          3D

 15 16  0  0  0  0  0  0  0  0999 V2000
  139.3434  149.9921  140.5876 C   0  0  0  0  0  0  0  0  0  0  0  0
  138.9518  149.9236  139.3657 C   0  0  0  0  0  0  0  0  0  0  0  0
  138.6168  150.1115  141.6414 C   0  0  0  0  0  0  0  0  0  0  0  0
  137.5735  149.8761  139.0597 C   0  0  0  0  0  0  0  0  0  0  0  0
  137.0914  149.5004  137.8161 O   0  0  0  0  0  0  0  0  0  0  0  0
  139.0590  150.5596  142.9738 C   0  0  0  0  0  0  0  0  0  0  0  0
  138.1364  151.1072  143.9767 C   0  0  0  0  0  0  0  0  0  0  0  0
  136.7209  149.8949  140.1652 C   0  0  0  0  0  0  0  0  0  0  0  0
  137.0150  151.3003  143.6749 C   0  0  0  0  0  0  0  0  0  0  0  0
  136.1148  151.9408  144.6661 C   0  0  0  0  0  0  0  0  0  0  0  0
  137.1871  150.2514  141.4841 C   0  0  0  0  0  0  0  0  0  0  0  0
  136.3449  150.6783  142.5465 C   0  0  0  0  0  0  0  0  0  0  0  0
  135.2913  151.2537  145.4961 C   0  0  0  0  0  0  0  0  0  0  0  0
  135.2994  149.8349  145.6418 C   0  0  0  0  0  0  0  0  0  0  0  0
  134.3439  151.9506  146.5132 C   0  0  0  0  0  0  0  0  0  0  0  0
  1  2  2  0
  1  3  1  0
  2  4  1  0
  4  5  1  0
  3  6  1  0
  6  7  2  0
  4  8  2  0
  7  9  1  0
  9 10  1  0
  3 11  2  0
  8 11  1  0
  9 12  2  0
 11 12  1  0
 10 13  2  3
 13 14  1  0
 13 15  1  0
M  END
$$$$

     RDKit          3D

 15 16  0  0  0  0  0  0  0  0999 V2000
  140.3037  150.2154  139.4789 Cl  0  0  0  0  0  0  0  0  0  0  0  0
  138.6781  150.1864  140.5322 C   0  0  0  0  0  0  0  0  0  0  0  0
  137.6383  149.3835  140.0932 C   0  0  0  0  0  0  0  0  0  0  0  0
  139.0323  150.8827  141.6188 C   0  0  0  0  0  0  0  0  0  0  0  0
  138.0466  150.8334  142.6902 C   0  0  0  0  0  0  0  0  0  0  0  0
  136.8389  150.0632  142.4017 C   0  0  0  0  0  0  0  0  0  0  0  0
  137.3721  148.8666  138.9192 C   0  0  0  0  0  0  0  0  0  0  0  0
  135.8191  150.2593  143.4713 C   0  0  0  0  0  0  0  0  0  0  0  0
  136.4102  151.2471  144.4811 C   0  0  0  0  0  0  0  0  0  0  0  0
  136.5204  149.5772  141.0732 C   0  0  0  0  0  0  0  0  0  0  0  0
  138.2821  151.2859  143.9853 C   0  0  0  0  0  0  0  0  0  0  0  0
  135.2037  151.6533  145.4625 C   0  0  0  0  0  0  0  0  0  0  0  0
  134.2944  151.3729  145.9440 C   0  0  0  0  0  0  0  0  0  0  0  0
  135.7430  153.2110  145.9292 C   0  0  0  0  0  0  0  0  0  0  0  0
  137.4980  151.4397  144.9321 C   0  0  0  0  0  0  0  0  0  0  0  0
  1  2  1  0
  2  3  2  0
  2  4  1  0
  4  5  2  0
  5  6  1  0
  3  7  1  0
  6  8  1  0
  8  9  1  0
  3 10  1  0
  6 10  2  0
  5 11  1  0
  9 12  1  0
 12 13  2  0
 12 14  1  0
  9 15  1  0
 11 15  1  0
M  END
$$$$

     RDKit          3D

 15 16  0  0  0  0  0  0  0  0999 V2000
  138.9995  149.7631  140.3651 C   0  0  0  0  0  0  0  0  0  0  0  0
  138.7139  149.5446  139.1245 C   0  0  0  0  0  0  0  0  0  0  0  0
  138.1832  150.1045  141.2841 C   0  0  0  0  0  0  0  0  0  0  0  0
  137.3206  149.5905  138.6810 C   0  0  0  0  0  0  0  0  0  0  0  0
  136.9836  149.1476  137.4587 O   0  0  0  0  0  0  0  0  0  0  0  0
  138.6053  150.6473  142.5904 C   0  0  0  0  0  0  0  0  0  0  0  0
  136.8415  150.3585  141.0404 C   0  0  0  0  0  0  0  0  0  0  0  0
  135.9113  150.6663  142.1137 C   0  0  0  0  0  0  0  0  0  0  0  0
  134.5600  150.6789  141.8549 C   0  0  0  0  0  0  0  0  0  0  0  0
  136.6643  150.9761  143.3047 C   0  0  0  0  0  0  0  0  0  0  0  0
  136.4415  149.8109  139.3541 C   0  0  0  0  0  0  0  0  0  0  0  0
  135.6325  151.3916  144.4209 C   0  0  0  0  0  0  0  0  0  0  0  0
  134.4508  151.4516  144.5806 C   0  0  0  0  0  0  0  0  0  0  0  0
  137.9729  150.9863  143.6121 C   0  0  0  0  0  0  0  0  0  0  0  0
  136.3175  151.6588  145.5333 O   0  0  0  0  0  0  0  0  0  0  0  0
  1  2  2  0
  1  3  1  0
  2  4  1  0
  4  5  1  0
  3  6  1  0
  3  7  2  0
  7  8  1  0
  8  9  1  0
  8 10  2  0
  4 11  2  0
  7 11  1  0
 10 12  1  0
 12 13  1  0
  6 14  2  0
 10 14  1  0
 12 15  2  0
M  END
$$$$

     RDKit          3D

 15 16  0  0  0  0  0  0  0  0999 V2000
  140.3037  150.2154  139.4789 Cl  0  0  0  0  0  0  0  0  0  0  0  0
  138.6781  150.1864  140.5322 C   0  0  0  0  0  0  0  0  0  0  0  0
  137.6383  149.3835  140.0932 C   0  0  0  0  0  0  0  0  0  0  0  0
  139.0323  150.8827  141.6188 C   0  0  0  0  0  0  0  0  0  0  0  0
  136.4854  149.4748  141.0069 C   0  0  0  0  0  0  0  0  0  0  0  0
  135.2458  148.9977  140.4692 C   0  0  0  0  0  0  0  0  0  0  0  0
  136.7840  150.4342  141.8404 C   0  0  0  0  0  0  0  0  0  0  0  0
  135.5883  150.7248  142.8957 C   0  0  0  0  0  0  0  0  0  0  0  0
  136.2040  151.5704  144.0279 C   0  0  0  0  0  0  0  0  0  0  0  0
  135.7313  152.4133  144.8107 C   0  0  0  0  0  0  0  0  0  0  0  0
  138.0169  151.0440  142.3165 C   0  0  0  0  0  0  0  0  0  0  0  0
  137.3649  150.9494  144.3583 C   0  0  0  0  0  0  0  0  0  0  0  0
  138.3335  151.7094  143.7124 C   0  0  0  0  0  0  0  0  0  0  0  0
  135.3358  152.5521  145.9232 C   0  0  0  0  0  0  0  0  0  0  0  0
  134.7459  153.6590  146.6600 C   0  0  0  0  0  0  0  0  0  0  0  0
  1  2  1  0
  2  3  2  0
  2  4  1  0
  3  5  1  0
  5  6  1  0
  5  7  2  0
  7  8  1  0
  8  9  1  0
  9 10  2  3
  4 11  2  0
  7 11  1  0
  9 12  1  0
 11 13  1  0
 12 13  1  0
 10 14  1  0
 14 15  1  0
M  END
$$$$

     RDKit          3D

 15 17  0  0  0  0  0  0  0  0999 V2000
  139.5547  150.5069  140.4449 C   0  0  0  0  0  0  0  0  0  0  0  0
  139.2163  150.0152  139.3729 C   0  0  0  0  0  0  0  0  0  0  0  0
  138.8578  150.3067  141.5860 C   0  0  0  0  0  0  0  0  0  0  0  0
  139.2256  150.3492  142.8903 C   0  0  0  0  0  0  0  0  0  0  0  0
  138.5566  151.2848  143.6742 C   0  0  0  0  0  0  0  0  0  0  0  0
  137.8562  149.4560  139.3195 C   0  0  0  0  0  0  0  0  0  0  0  0
  137.4734  151.5824  143.4210 C   0  0  0  0  0  0  0  0  0  0  0  0
  137.4375  150.1429  141.2506 C   0  0  0  0  0  0  0  0  0  0  0  0
  136.4212  151.9948  144.3706 C   0  0  0  0  0  0  0  0  0  0  0  0
  136.9735  149.6211  140.1443 C   0  0  0  0  0  0  0  0  0  0  0  0
  136.6573  150.8283  142.4070 C   0  0  0  0  0  0  0  0  0  0  0  0
  136.6420  153.3510  144.9280 C   0  0  0  0  0  0  0  0  0  0  0  0
  135.6146  151.4996  145.1500 C   0  0  0  0  0  0  0  0  0  0  0  0
  135.1411  152.0553  146.1386 C   0  0  0  0  0  0  0  0  0  0  0  0
  135.5453  153.4359  146.2206 C   0  0  0  0  0  0  0  0  0  0  0  0
  1  2  2  0
  1  3  1  0
  3  4  1  0
  4  5  2  0
  2  6  1  0
  5  7  1  0
  3  8  2  0
  7  9  1  0
  6 10  2  0
  8 10  1  0
  7 11  2  0
  8 11  1  0
  9 12  1  0
  9 13  2  0
 13 14  1  0
 12 15  1  0
 14 15  1  0
M  END
$$$$

     RDKit          3D

 15 16  0  0  0  0  0  0  0  0999 V2000
  138.7095  151.1467  142.6277 C   0  0  0  0  0  0  0  0  0  0  0  0
  138.5278  151.9381  143.5113 C   0  0  0  0  0  0  0  0  0  0  0  0
  137.3840  151.6610  144.3967 C   0  0  0  0  0  0  0  0  0  0  0  0
  136.7653  150.3888  144.2991 C   0  0  0  0  0  0  0  0  0  0  0  0
  138.1237  149.8686  142.3074 C   0  0  0  0  0  0  0  0  0  0  0  0
  138.4285  149.0768  141.2819 C   0  0  0  0  0  0  0  0  0  0  0  0
  138.5072  149.8311  140.0610 C   0  0  0  0  0  0  0  0  0  0  0  0
  137.0799  149.5075  143.3557 C   0  0  0  0  0  0  0  0  0  0  0  0
  136.9991  152.5859  145.4369 C   0  0  0  0  0  0  0  0  0  0  0  0
  139.2332  150.9075  139.8798 C   0  0  0  0  0  0  0  0  0  0  0  0
  139.7495  151.6196  138.9841 C   0  0  0  0  0  0  0  0  0  0  0  0
  139.4305  151.2823  141.2581 C   0  0  0  0  0  0  0  0  0  0  0  0
  135.6782  152.5749  145.9628 C   0  0  0  0  0  0  0  0  0  0  0  0
  137.8998  149.6866  138.9469 O   0  0  0  0  0  0  0  0  0  0  0  0
  135.0101  151.5111  146.1193 C   0  0  0  0  0  0  0  0  0  0  0  0
  1  2  1  0
  2  3  2  0
  3  4  1  0
  1  5  2  0
  5  6  1  0
  6  7  1  0
  4  8  2  0
  5  8  1  0
  3  9  1  0
  7 10  1  0
 10 11  2  0
  1 12  1  0
 10 12  1  0
  9 13  1  0
  7 14  2  0
 13 15  1  0
M  END
$$$$

     RDKit          3D

 15 16  0  0  0  0  0  0  0  0999 V2000
  139.5547  150.5069  140.4449 C   0  0  0  0  0  0  0  0  0  0  0  0
  139.2163  150.0152  139.3729 C   0  0  0  0  0  0  0  0  0  0  0  0
  138.8578  150.3067  141.5860 C   0  0  0  0  0  0  0  0  0  0  0  0
  137.9790  149.2997  139.2383 C   0  0  0  0  0  0  0  0  0  0  0  0
  139.3342  150.9311  142.8842 C   0  0  0  0  0  0  0  0  0  0  0  0
  138.3151  151.4956  143.6096 C   0  0  0  0  0  0  0  0  0  0  0  0
  137.0061  151.1297  143.2686 C   0  0  0  0  0  0  0  0  0  0  0  0
  137.5336  148.7786  138.0874 C   0  0  0  0  0  0  0  0  0  0  0  0
  137.1574  149.5007  140.2338 C   0  0  0  0  0  0  0  0  0  0  0  0
  135.7222  149.1985  140.1106 C   0  0  0  0  0  0  0  0  0  0  0  0
  137.6088  150.0812  141.4890 C   0  0  0  0  0  0  0  0  0  0  0  0
  136.0224  151.5944  144.3226 C   0  0  0  0  0  0  0  0  0  0  0  0
  135.2433  151.0109  144.9740 C   0  0  0  0  0  0  0  0  0  0  0  0
  136.6510  150.2608  142.3145 C   0  0  0  0  0  0  0  0  0  0  0  0
  136.0959  153.0966  144.4690 C   0  0  0  0  0  0  0  0  0  0  0  0
  1  2  2  0
  1  3  1  0
  2  4  1  0
  3  5  1  0
  5  6  2  0
  6  7  1  0
  4  8  1  0
  4  9  2  0
  9 10  1  0
  3 11  2  0
  9 11  1  0
  7 12  1  0
 12 13  2  0
  7 14  2  0
 11 14  1  0
 12 15  1  0
M  END
$$$$

     RDKit          3D

 15 16  0  0  0  0  0  0  0  0999 V2000
  138.9995  149.7631  140.3651 C   0  0  0  0  0  0  0  0  0  0  0  0
  138.7139  149.5446  139.1245 C   0  0  0  0  0  0  0  0  0  0  0  0
  138.1832  150.1045  141.2841 C   0  0  0  0  0  0  0  0  0  0  0  0
  137.3206  149.5905  138.6810 C   0  0  0  0  0  0  0  0  0  0  0  0
  136.9836  149.1476  137.4587 O   0  0  0  0  0  0  0  0  0  0  0  0
  138.6053  150.6473  142.5904 C   0  0  0  0  0  0  0  0  0  0  0  0
  136.8415  150.3585  141.0404 C   0  0  0  0  0  0  0  0  0  0  0  0
  135.9113  150.6663  142.1137 C   0  0  0  0  0  0  0  0  0  0  0  0
  134.5600  150.6789  141.8549 C   0  0  0  0  0  0  0  0  0  0  0  0
  136.7319  150.9827  142.9796 C   0  0  0  0  0  0  0  0  0  0  0  0
  136.5210  149.7863  139.7487 C   0  0  0  0  0  0  0  0  0  0  0  0
  135.7251  151.5724  144.2724 C   0  0  0  0  0  0  0  0  0  0  0  0
  134.5385  151.5724  144.4823 C   0  0  0  0  0  0  0  0  0  0  0  0
  136.3544  152.0748  145.6089 C   0  0  0  0  0  0  0  0  0  0  0  0
  138.0068  151.0695  143.4209 N   0  0  0  0  0  0  0  0  0  0  0  0
  1  2  2  0
  1  3  1  0
  2  4  1  0
  4  5  1  0
  3  6  1  0
  3  7  2  0
  7  8  1  0
  8  9  1  0
  8 10  2  0
  4 11  2  0
  7 11  1  0
 10 12  1  0
 12 13  2  0
 12 14  1  0
  6 15  2  0
 10 15  1  0
M  END
$$$$

     RDKit          3D

 15 16  0  0  0  0  0  0  0  0999 V2000
  139.3434  149.9921  140.5876 C   0  0  0  0  0  0  0  0  0  0  0  0
  138.9518  149.9236  139.3657 C   0  0  0  0  0  0  0  0  0  0  0  0
  138.6168  150.1115  141.6414 C   0  0  0  0  0  0  0  0  0  0  0  0
  137.1898  149.8671  141.8329 C   0  0  0  0  0  0  0  0  0  0  0  0
  136.5148  149.7637  140.5812 C   0  0  0  0  0  0  0  0  0  0  0  0
  139.1786  150.4016  143.1316 C   0  0  0  0  0  0  0  0  0  0  0  0
  138.3339  151.1454  143.8950 C   0  0  0  0  0  0  0  0  0  0  0  0
  136.9941  151.0549  143.8223 C   0  0  0  0  0  0  0  0  0  0  0  0
  139.7963  149.9608  138.2189 C   0  0  0  0  0  0  0  0  0  0  0  0
  136.9672  149.6614  139.2543 C   0  0  0  0  0  0  0  0  0  0  0  0
  136.3238  150.4699  143.0248 C   0  0  0  0  0  0  0  0  0  0  0  0
  136.1573  151.8105  145.0759 C   0  0  0  0  0  0  0  0  0  0  0  0
  134.9398  151.3973  145.3393 C   0  0  0  0  0  0  0  0  0  0  0  0
  134.3798  152.2109  146.4353 C   0  0  0  0  0  0  0  0  0  0  0  0
  138.0277  149.7538  138.6648 C   0  0  0  0  0  0  0  0  0  0  0  0
  1  2  2  0
  1  3  1  0
  3  4  1  0
  4  5  2  0
  3  6  1  0
  6  7  2  0
  7  8  1  0
  2  9  1  0
  5 10  1  0
  4 11  1  0
  8 11  2  0
  8 12  1  0
 12 13  2  3
 13 14  1  0
  2 15  1  0
 10 15  2  0
M  END
$$$$

     RDKit          3D

 15 16  0  0  0  0  0  0  0  0999 V2000
  139.5547  150.5069  140.4449 C   0  0  0  0  0  0  0  0  0  0  0  0
  139.2163  150.0152  139.3729 C   0  0  0  0  0  0  0  0  0  0  0  0
  138.8578  150.3067  141.5860 C   0  0  0  0  0  0  0  0  0  0  0  0
  137.9790  149.2997  139.2383 C   0  0  0  0  0  0  0  0  0  0  0  0
  139.3342  150.9311  142.8842 C   0  0  0  0  0  0  0  0  0  0  0  0
  138.3151  151.4956  143.6096 C   0  0  0  0  0  0  0  0  0  0  0  0
  137.0061  151.1297  143.2686 C   0  0  0  0  0  0  0  0  0  0  0  0
  137.5336  148.7786  138.0874 C   0  0  0  0  0  0  0  0  0  0  0  0
  137.1574  149.5007  140.2338 C   0  0  0  0  0  0  0  0  0  0  0  0
  135.7222  149.1985  140.1106 C   0  0  0  0  0  0  0  0  0  0  0  0
  137.6088  150.0812  141.4890 C   0  0  0  0  0  0  0  0  0  0  0  0
  136.0224  151.5944  144.3226 C   0  0  0  0  0  0  0  0  0  0  0  0
  136.0708  152.6998  144.9709 C   0  0  0  0  0  0  0  0  0  0  0  0
  136.7894  150.2913  142.3024 N   0  0  0  0  0  0  0  0  0  0  0  0
  137.0085  153.6773  144.7694 C   0  0  0  0  0  0  0  0  0  0  0  0
  1  2  2  0
  1  3  1  0
  2  4  1  0
  3  5  1  0
  5  6  2  0
  6  7  1  0
  4  8  1  0
  4  9  2  0
  9 10  1  0
  3 11  2  0
  9 11  1  0
  7 12  1  0
 12 13  1  0
  7 14  2  0
 11 14  1  0
 13 15  2  0
M  END
$$$$

     RDKit          3D

 15 17  0  0  0  0  0  0  0  0999 V2000
  139.5547  150.5069  140.4449 C   0  0  0  0  0  0  0  0  0  0  0  0
  139.2163  150.0152  139.3729 C   0  0  0  0  0  0  0  0  0  0  0  0
  138.8578  150.3067  141.5860 C   0  0  0  0  0  0  0  0  0  0  0  0
  139.2256  150.3492  142.8903 C   0  0  0  0  0  0  0  0  0  0  0  0
  138.5566  151.2848  143.6742 C   0  0  0  0  0  0  0  0  0  0  0  0
  137.8562  149.4560  139.3195 C   0  0  0  0  0  0  0  0  0  0  0  0
  137.4734  151.5824  143.4210 C   0  0  0  0  0  0  0  0  0  0  0  0
  137.4375  150.1429  141.2506 C   0  0  0  0  0  0  0  0  0  0  0  0
  136.4212  151.9948  144.3706 C   0  0  0  0  0  0  0  0  0  0  0  0
  136.9735  149.6211  140.1443 C   0  0  0  0  0  0  0  0  0  0  0  0
  136.6573  150.8283  142.4070 C   0  0  0  0  0  0  0  0  0  0  0  0
  136.6420  153.3510  144.9280 C   0  0  0  0  0  0  0  0  0  0  0  0
  135.6146  151.4996  145.1500 C   0  0  0  0  0  0  0  0  0  0  0  0
  135.1411  152.0553  146.1386 C   0  0  0  0  0  0  0  0  0  0  0  0
  135.7883  153.4233  146.0523 C   0  0  0  0  0  0  0  0  0  0  0  0
  1  2  2  0
  1  3  1  0
  3  4  1  0
  4  5  2  0
  2  6  1  0
  5  7  1  0
  3  8  2  0
  7  9  1  0
  6 10  2  0
  8 10  1  0
  7 11  2  0
  8 11  1  0
  9 12  1  0
  9 13  2  0
 13 14  1  0
 12 15  2  0
 14 15  1  0
M  END
$$$$

     RDKit          3D

 15 16  0  0  0  0  0  0  0  0999 V2000
  138.9995  149.7631  140.3651 C   0  0  0  0  0  0  0  0  0  0  0  0
  138.7139  149.5446  139.1245 C   0  0  0  0  0  0  0  0  0  0  0  0
  138.1832  150.1045  141.2841 C   0  0  0  0  0  0  0  0  0  0  0  0
  137.3206  149.5905  138.6810 C   0  0  0  0  0  0  0  0  0  0  0  0
  136.9836  149.1476  137.4587 O   0  0  0  0  0  0  0  0  0  0  0  0
  138.6053  150.6473  142.5904 C   0  0  0  0  0  0  0  0  0  0  0  0
  136.8415  150.3585  141.0404 C   0  0  0  0  0  0  0  0  0  0  0  0
  135.9113  150.6663  142.1137 C   0  0  0  0  0  0  0  0  0  0  0  0
  134.5600  150.6789  141.8549 C   0  0  0  0  0  0  0  0  0  0  0  0
  136.6643  150.9761  143.3047 C   0  0  0  0  0  0  0  0  0  0  0  0
  135.6534  151.3793  144.4280 C   0  0  0  0  0  0  0  0  0  0  0  0
  134.4781  151.4172  144.6351 C   0  0  0  0  0  0  0  0  0  0  0  0
  136.4563  149.9135  139.7815 C   0  0  0  0  0  0  0  0  0  0  0  0
  136.4475  151.9325  145.4530 O   0  0  0  0  0  0  0  0  0  0  0  0
  137.8415  151.0136  143.3350 N   0  0  0  0  0  0  0  0  0  0  0  0
  1  2  2  0
  1  3  1  0
  2  4  1  0
  4  5  1  0
  3  6  1  0
  3  7  2  0
  7  8  1  0
  8  9  1  0
  8 10  2  0
 10 11  1  0
 11 12  1  0
  4 13  2  0
  7 13  1  0
 11 14  2  0
  6 15  2  0
 10 15  1  0
M  END
$$$$

     RDKit          3D

 15 16  0  0  0  0  0  0  0  0999 V2000
  140.3037  150.2154  139.4789 Cl  0  0  0  0  0  0  0  0  0  0  0  0
  138.6781  150.1864  140.5322 C   0  0  0  0  0  0  0  0  0  0  0  0
  137.6383  149.3835  140.0932 C   0  0  0  0  0  0  0  0  0  0  0  0
  138.8659  150.7191  141.4521 C   0  0  0  0  0  0  0  0  0  0  0  0
  136.4770  149.4747  140.9574 C   0  0  0  0  0  0  0  0  0  0  0  0
  135.2970  148.9129  140.3578 C   0  0  0  0  0  0  0  0  0  0  0  0
  136.6537  150.3298  141.9841 C   0  0  0  0  0  0  0  0  0  0  0  0
  135.4964  150.4951  142.9729 C   0  0  0  0  0  0  0  0  0  0  0  0
  136.0374  151.3461  144.1549 C   0  0  0  0  0  0  0  0  0  0  0  0
  137.8724  151.0001  142.4107 C   0  0  0  0  0  0  0  0  0  0  0  0
  135.1061  151.6912  145.2158 C   0  0  0  0  0  0  0  0  0  0  0  0
  134.0780  151.2002  145.5755 C   0  0  0  0  0  0  0  0  0  0  0  0
  137.3494  151.8776  144.2007 C   0  0  0  0  0  0  0  0  0  0  0  0
  138.2375  151.7644  143.5826 C   0  0  0  0  0  0  0  0  0  0  0  0
  135.5504  152.8830  145.8187 C   0  0  0  0  0  0  0  0  0  0  0  0
  1  2  1  0
  2  3  2  0
  2  4  1  0
  3  5  1  0
  5  6  1  0
  5  7  2  0
  7  8  1  0
  8  9  2  0
  4 10  2  0
  7 10  1  0
  9 11  1  0
 11 12  2  0
  9 13  1  0
 10 14  1  0
 13 14  2  0
 11 15  1  0
M  END
$$$$
