
     RDKit          3D

  9  9  0  0  0  0  0  0  0  0999 V2000
  129.5804  130.4836  122.4334 C   0  0  0  0  0  0  0  0  0  0  0  0
  130.7593  130.8591  122.9295 C   0  0  0  0  0  0  0  0  0  0  0  0
  129.0571  131.1873  121.5564 C   0  0  0  0  0  0  0  0  0  0  0  0
  131.3863  130.1413  124.2900 Cl  0  0  0  0  0  0  0  0  0  0  0  0
  131.3935  131.9843  122.3653 C   0  0  0  0  0  0  0  0  0  0  0  0
  127.7470  130.7164  121.0397 C   0  0  0  0  0  0  0  0  0  0  0  0
  129.7417  132.1234  121.1671 C   0  0  0  0  0  0  0  0  0  0  0  0
  130.8528  132.6832  121.4859 C   0  0  0  0  0  0  0  0  0  0  0  0
  127.7302  129.6721  120.1097 O   0  0  0  0  0  0  0  0  0  0  0  0
  1  2  2  0
  1  3  1  0
  2  4  1  0
  2  5  1  0
  3  6  1  0
  3  7  2  0
  5  8  2  0
  7  8  1  0
  6  9  2  0
M  END
$$$$
