
     RDKit          3D

  9  9  0  0  0  0  0  0  0  0999 V2000
  129.0694  131.8049  121.7010 C   0  0  0  0  0  0  0  0  0  0  0  0
  130.2348  132.2605  122.1189 C   0  0  0  0  0  0  0  0  0  0  0  0
  131.2836  132.4054  121.5366 C   0  0  0  0  0  0  0  0  0  0  0  0
  132.4986  133.0858  122.0933 F   0  0  0  0  0  0  0  0  0  0  0  0
  130.4155  132.6457  123.4503 F   0  0  0  0  0  0  0  0  0  0  0  0
  128.9804  131.4282  120.3775 C   0  0  0  0  0  0  0  0  0  0  0  0
  127.7721  130.8154  119.8102 C   0  0  0  0  0  0  0  0  0  0  0  0
  130.2947  131.5508  119.8288 C   0  0  0  0  0  0  0  0  0  0  0  0
  131.4605  132.0707  120.2150 C   0  0  0  0  0  0  0  0  0  0  0  0
  1  2  1  0
  2  3  2  0
  3  4  1  0
  2  5  1  0
  1  6  2  0
  6  7  1  0
  6  8  1  0
  3  9  1  0
  8  9  2  0
M  END
$$$$
