
     RDKit          3D

  9  9  0  0  0  0  0  0  0  0999 V2000
  129.1856  130.9948  121.1414 C   0  0  0  0  0  0  0  0  0  0  0  0
  130.3787  130.9362  121.5666 C   0  0  0  0  0  0  0  0  0  0  0  0
  131.3350  130.4509  120.9903 C   0  0  0  0  0  0  0  0  0  0  0  0
  131.0799  129.7544  119.8144 C   0  0  0  0  0  0  0  0  0  0  0  0
  128.0650  131.3831  121.8486 F   0  0  0  0  0  0  0  0  0  0  0  0
  129.7674  129.7787  119.3424 C   0  0  0  0  0  0  0  0  0  0  0  0
  128.8301  130.3897  120.0315 C   0  0  0  0  0  0  0  0  0  0  0  0
  132.5806  129.2898  119.2431 C   0  0  0  0  0  0  0  0  0  0  0  0
  133.5033  129.7256  119.7547 O   0  0  0  0  0  0  0  0  0  0  0  0
  1  2  2  0
  2  3  1  0
  3  4  2  0
  1  5  1  0
  4  6  1  0
  1  7  1  0
  6  7  2  0
  4  8  1  0
  8  9  2  0
M  END
$$$$
