
     RDKit          3D

  9  9  0  0  0  0  0  0  0  0999 V2000
  135.6132  130.9736  118.1529 C   0  0  0  0  0  0  0  0  0  0  0  0
  134.5165  130.4627  118.4787 C   0  0  0  0  0  0  0  0  0  0  0  0
  136.9451  130.3871  118.0993 C   0  0  0  0  0  0  0  0  0  0  0  0
  136.7940  129.1318  118.5938 C   0  0  0  0  0  0  0  0  0  0  0  0
  135.3967  132.5533  117.6029 C   0  0  0  0  0  0  0  0  0  0  0  0
  133.3003  131.0950  118.5746 O   0  0  0  0  0  0  0  0  0  0  0  0
  138.0814  128.3650  118.8008 C   0  0  0  0  0  0  0  0  0  0  0  0
  134.7120  129.1459  118.8602 O   0  0  0  0  0  0  0  0  0  0  0  0
  135.8954  128.5452  118.9923 C   0  0  0  0  0  0  0  0  0  0  0  0
  1  2  1  0
  1  3  2  0
  3  4  1  0
  1  5  1  0
  2  6  2  0
  4  7  1  0
  2  8  1  0
  4  9  2  0
  8  9  1  0
M  END
$$$$
