
     RDKit          3D

  9  9  0  0  0  0  0  0  0  0999 V2000
  128.7928  130.3683  122.2574 Cl  0  0  0  0  0  0  0  0  0  0  0  0
  129.6904  131.2402  121.8012 C   0  0  0  0  0  0  0  0  0  0  0  0
  131.0094  131.4679  122.5182 C   0  0  0  0  0  0  0  0  0  0  0  0
  129.5432  131.8702  120.6464 C   0  0  0  0  0  0  0  0  0  0  0  0
  131.9293  132.3559  121.9380 C   0  0  0  0  0  0  0  0  0  0  0  0
  128.3467  131.8222  119.9125 F   0  0  0  0  0  0  0  0  0  0  0  0
  131.5585  132.9590  120.6988 C   0  0  0  0  0  0  0  0  0  0  0  0
  132.6051  133.9296  120.1852 C   0  0  0  0  0  0  0  0  0  0  0  0
  130.4155  132.7556  120.0795 C   0  0  0  0  0  0  0  0  0  0  0  0
  1  2  1  0
  2  3  2  0
  2  4  1  0
  3  5  1  0
  4  6  1  0
  5  7  2  0
  7  8  1  0
  4  9  2  0
  7  9  1  0
M  END
$$$$
