
     RDKit          3D

  9  9  0  0  0  0  0  0  0  0999 V2000
  128.7928  130.3683  122.2574 Cl  0  0  0  0  0  0  0  0  0  0  0  0
  129.6904  131.2402  121.8012 C   0  0  0  0  0  0  0  0  0  0  0  0
  131.0094  131.4679  122.5182 C   0  0  0  0  0  0  0  0  0  0  0  0
  129.5432  131.8702  120.6464 C   0  0  0  0  0  0  0  0  0  0  0  0
  131.9293  132.3559  121.9380 C   0  0  0  0  0  0  0  0  0  0  0  0
  128.3467  131.8222  119.9125 F   0  0  0  0  0  0  0  0  0  0  0  0
  131.1982  130.8228  123.8504 C   0  0  0  0  0  0  0  0  0  0  0  0
  130.6103  132.5892  120.3232 C   0  0  0  0  0  0  0  0  0  0  0  0
  131.7659  132.8884  120.9308 C   0  0  0  0  0  0  0  0  0  0  0  0
  1  2  1  0
  2  3  2  0
  2  4  1  0
  3  5  1  0
  4  6  1  0
  3  7  1  0
  4  8  2  0
  5  9  2  0
  8  9  1  0
M  END
$$$$
