
     RDKit          3D

  9  9  0  0  0  0  0  0  0  0999 V2000
  128.3229  130.7658  121.7641 C   0  0  0  0  0  0  0  0  0  0  0  0
  129.4589  130.8440  122.3670 C   0  0  0  0  0  0  0  0  0  0  0  0
  128.3019  131.1033  120.5078 C   0  0  0  0  0  0  0  0  0  0  0  0
  127.0546  130.8733  119.7525 C   0  0  0  0  0  0  0  0  0  0  0  0
  129.5904  131.4899  120.1260 C   0  0  0  0  0  0  0  0  0  0  0  0
  129.6355  131.9321  118.7863 F   0  0  0  0  0  0  0  0  0  0  0  0
  130.4375  131.4116  121.8409 C   0  0  0  0  0  0  0  0  0  0  0  0
  130.6801  131.7015  120.7539 C   0  0  0  0  0  0  0  0  0  0  0  0
  127.3342  131.2145  118.3555 C   0  0  0  0  0  0  0  0  0  0  0  0
  1  2  2  0
  1  3  1  0
  3  4  1  0
  3  5  2  0
  5  6  1  0
  2  7  1  0
  5  8  1  0
  7  8  2  0
  4  9  1  0
M  END
$$$$
