
     RDKit          3D

  9  9  0  0  0  0  0  0  0  0999 V2000
  128.7928  130.3683  122.2574 Cl  0  0  0  0  0  0  0  0  0  0  0  0
  129.6904  131.2402  121.8012 C   0  0  0  0  0  0  0  0  0  0  0  0
  131.0094  131.4679  122.5182 C   0  0  0  0  0  0  0  0  0  0  0  0
  129.5432  131.8702  120.6464 C   0  0  0  0  0  0  0  0  0  0  0  0
  128.3710  131.7441  119.8925 O   0  0  0  0  0  0  0  0  0  0  0  0
  131.3032  130.7956  123.9407 Cl  0  0  0  0  0  0  0  0  0  0  0  0
  131.7272  132.4249  121.8785 C   0  0  0  0  0  0  0  0  0  0  0  0
  131.2858  132.8880  120.8717 C   0  0  0  0  0  0  0  0  0  0  0  0
  130.4068  132.7406  120.1437 C   0  0  0  0  0  0  0  0  0  0  0  0
  1  2  1  0
  2  3  2  0
  2  4  1  0
  4  5  1  0
  3  6  1  0
  3  7  1  0
  7  8  2  0
  4  9  2  0
  8  9  1  0
M  END
$$$$
