
     RDKit          3D

  9  9  0  0  0  0  0  0  0  0999 V2000
  135.7675  129.7549  117.5138 C   0  0  0  0  0  0  0  0  0  0  0  0
  136.1745  128.4532  117.6548 C   0  0  0  0  0  0  0  0  0  0  0  0
  137.4192  128.0173  117.5408 C   0  0  0  0  0  0  0  0  0  0  0  0
  135.1879  127.4652  117.8255 O   0  0  0  0  0  0  0  0  0  0  0  0
  136.8236  130.7240  117.5398 C   0  0  0  0  0  0  0  0  0  0  0  0
  134.4027  130.1792  117.5139 C   0  0  0  0  0  0  0  0  0  0  0  0
  136.4678  132.2299  117.6091 C   0  0  0  0  0  0  0  0  0  0  0  0
  135.1126  132.5377  117.6422 C   0  0  0  0  0  0  0  0  0  0  0  0
  134.0687  131.3404  117.7506 C   0  0  0  0  0  0  0  0  0  0  0  0
  1  2  1  0
  2  3  1  0
  2  4  2  0
  1  5  2  0
  1  6  1  0
  5  7  1  0
  7  8  2  0
  6  9  2  0
  8  9  1  0
M  END
$$$$
