
     RDKit          3D

  9 10  0  0  0  0  0  0  0  0999 V2000
  129.1856  130.9948  121.1414 C   0  0  0  0  0  0  0  0  0  0  0  0
  130.3787  130.9362  121.5666 C   0  0  0  0  0  0  0  0  0  0  0  0
  131.3350  130.4509  120.9903 C   0  0  0  0  0  0  0  0  0  0  0  0
  132.7398  130.3449  121.4826 O   0  0  0  0  0  0  0  0  0  0  0  0
  131.1525  129.8549  119.8067 C   0  0  0  0  0  0  0  0  0  0  0  0
  128.9874  130.3468  119.8494 C   0  0  0  0  0  0  0  0  0  0  0  0
  130.0427  129.8381  119.2076 C   0  0  0  0  0  0  0  0  0  0  0  0
  132.6795  129.4869  119.3876 O   0  0  0  0  0  0  0  0  0  0  0  0
  133.5995  129.7475  120.2959 C   0  0  0  0  0  0  0  0  0  0  0  0
  1  2  2  0
  2  3  1  0
  3  4  1  0
  3  5  2  0
  1  6  1  0
  5  7  1  0
  6  7  2  0
  5  8  1  0
  4  9  1  0
  8  9  1  0
M  END
$$$$
