
     RDKit          3D

  9  9  0  0  0  0  0  0  0  0999 V2000
  136.8047  126.8673  117.6426 Cl  0  0  0  0  0  0  0  0  0  0  0  0
  136.6792  128.3295  117.8831 C   0  0  0  0  0  0  0  0  0  0  0  0
  136.1951  129.0712  116.8954 C   0  0  0  0  0  0  0  0  0  0  0  0
  137.0683  128.7171  119.2705 C   0  0  0  0  0  0  0  0  0  0  0  0
  136.9686  130.0451  119.6189 C   0  0  0  0  0  0  0  0  0  0  0  0
  135.5224  128.6230  115.6643 Cl  0  0  0  0  0  0  0  0  0  0  0  0
  136.0393  130.4943  117.3011 C   0  0  0  0  0  0  0  0  0  0  0  0
  135.4108  131.3301  116.3524 F   0  0  0  0  0  0  0  0  0  0  0  0
  136.3400  130.9801  118.3824 C   0  0  0  0  0  0  0  0  0  0  0  0
  1  2  1  0
  2  3  2  0
  2  4  1  0
  4  5  2  0
  3  6  1  0
  3  7  1  0
  7  8  1  0
  5  9  1  0
  7  9  2  0
M  END
$$$$
