
     RDKit          3D

  9  9  0  0  0  0  0  0  0  0999 V2000
  129.1238  130.4780  122.7022 Cl  0  0  0  0  0  0  0  0  0  0  0  0
  130.0489  131.1433  121.9935 C   0  0  0  0  0  0  0  0  0  0  0  0
  131.2518  131.6806  122.6389 C   0  0  0  0  0  0  0  0  0  0  0  0
  132.2949  132.3740  121.9200 C   0  0  0  0  0  0  0  0  0  0  0  0
  131.2390  131.3454  123.9707 F   0  0  0  0  0  0  0  0  0  0  0  0
  130.0002  131.3860  120.6057 C   0  0  0  0  0  0  0  0  0  0  0  0
  132.0577  132.5745  120.5385 C   0  0  0  0  0  0  0  0  0  0  0  0
  132.9981  133.4058  119.8792 F   0  0  0  0  0  0  0  0  0  0  0  0
  130.9660  132.1409  119.9387 C   0  0  0  0  0  0  0  0  0  0  0  0
  1  2  1  0
  2  3  2  0
  3  4  1  0
  3  5  1  0
  2  6  1  0
  4  7  2  0
  7  8  1  0
  6  9  2  0
  7  9  1  0
M  END
$$$$
