
     RDKit          3D

  9  9  0  0  0  0  0  0  0  0999 V2000
  136.3914  127.2705  117.0970 C   0  0  0  0  0  0  0  0  0  0  0  0
  137.5613  127.5059  117.7206 O   0  0  0  0  0  0  0  0  0  0  0  0
  135.3937  127.9995  117.2665 C   0  0  0  0  0  0  0  0  0  0  0  0
  135.6745  129.1506  118.1567 C   0  0  0  0  0  0  0  0  0  0  0  0
  136.9825  129.2255  118.7266 C   0  0  0  0  0  0  0  0  0  0  0  0
  137.7189  128.4304  118.6332 C   0  0  0  0  0  0  0  0  0  0  0  0
  134.5727  130.1538  118.3496 C   0  0  0  0  0  0  0  0  0  0  0  0
  133.6537  129.8694  119.3385 O   0  0  0  0  0  0  0  0  0  0  0  0
  134.8788  131.2163  117.8211 O   0  0  0  0  0  0  0  0  0  0  0  0
  1  2  1  0
  1  3  2  0
  3  4  1  0
  4  5  2  0
  2  6  1  0
  5  6  1  0
  4  7  1  0
  7  8  2  0
  7  9  1  0
M  END
$$$$
