
     RDKit          3D

  9  9  0  0  0  0  0  0  0  0999 V2000
  135.6132  130.9736  118.1529 C   0  0  0  0  0  0  0  0  0  0  0  0
  134.5165  130.4627  118.4787 C   0  0  0  0  0  0  0  0  0  0  0  0
  135.5794  132.1830  117.6578 C   0  0  0  0  0  0  0  0  0  0  0  0
  134.4074  129.1246  119.0886 O   0  0  0  0  0  0  0  0  0  0  0  0
  133.5960  131.4555  118.3824 C   0  0  0  0  0  0  0  0  0  0  0  0
  136.7350  130.0566  118.2204 O   0  0  0  0  0  0  0  0  0  0  0  0
  137.9619  130.6264  118.4818 C   0  0  0  0  0  0  0  0  0  0  0  0
  134.1527  132.6357  117.8794 C   0  0  0  0  0  0  0  0  0  0  0  0
  136.6572  133.1374  117.2073 C   0  0  0  0  0  0  0  0  0  0  0  0
  1  2  1  0
  1  3  2  0
  2  4  1  0
  2  5  2  0
  1  6  1  0
  6  7  1  0
  3  8  1  0
  5  8  1  0
  3  9  1  0
M  END
$$$$
