
     RDKit          3D

  9  9  0  0  0  0  0  0  0  0999 V2000
  129.1856  130.9948  121.1414 C   0  0  0  0  0  0  0  0  0  0  0  0
  130.3787  130.9362  121.5666 C   0  0  0  0  0  0  0  0  0  0  0  0
  128.8090  130.7249  119.9065 C   0  0  0  0  0  0  0  0  0  0  0  0
  128.3936  131.4483  122.2320 F   0  0  0  0  0  0  0  0  0  0  0  0
  131.3818  130.3813  120.7276 C   0  0  0  0  0  0  0  0  0  0  0  0
  130.4852  131.2015  122.8796 F   0  0  0  0  0  0  0  0  0  0  0  0
  131.0027  130.0848  119.4587 C   0  0  0  0  0  0  0  0  0  0  0  0
  131.9568  129.5436  118.5513 F   0  0  0  0  0  0  0  0  0  0  0  0
  129.8765  130.3011  119.1073 C   0  0  0  0  0  0  0  0  0  0  0  0
  1  2  2  0
  1  3  1  0
  1  4  1  0
  2  5  1  0
  2  6  1  0
  5  7  2  0
  7  8  1  0
  3  9  2  0
  7  9  1  0
M  END
$$$$
