
     RDKit          3D

  9  9  0  0  0  0  0  0  0  0999 V2000
  135.6132  130.9736  118.1529 C   0  0  0  0  0  0  0  0  0  0  0  0
  134.5165  130.4627  118.4787 C   0  0  0  0  0  0  0  0  0  0  0  0
  136.9451  130.3871  118.0993 C   0  0  0  0  0  0  0  0  0  0  0  0
  136.7940  129.1318  118.5938 C   0  0  0  0  0  0  0  0  0  0  0  0
  133.3035  131.2287  118.4679 F   0  0  0  0  0  0  0  0  0  0  0  0
  138.0581  128.3143  118.7580 C   0  0  0  0  0  0  0  0  0  0  0  0
  134.7654  129.1594  118.9427 C   0  0  0  0  0  0  0  0  0  0  0  0
  135.5179  132.5795  117.5334 Cl  0  0  0  0  0  0  0  0  0  0  0  0
  135.8397  128.5504  119.0035 C   0  0  0  0  0  0  0  0  0  0  0  0
  1  2  1  0
  1  3  2  0
  3  4  1  0
  2  5  1  0
  4  6  1  0
  2  7  2  0
  1  8  1  0
  4  9  2  0
  7  9  1  0
M  END
$$$$
