
     RDKit          3D

  9  9  0  0  0  0  0  0  0  0999 V2000
  129.1856  130.9948  121.1414 C   0  0  0  0  0  0  0  0  0  0  0  0
  130.3787  130.9362  121.5666 C   0  0  0  0  0  0  0  0  0  0  0  0
  128.8090  130.7249  119.9065 C   0  0  0  0  0  0  0  0  0  0  0  0
  128.3936  131.4483  122.2320 F   0  0  0  0  0  0  0  0  0  0  0  0
  131.3818  130.3813  120.7276 C   0  0  0  0  0  0  0  0  0  0  0  0
  130.4852  131.2015  122.8796 F   0  0  0  0  0  0  0  0  0  0  0  0
  127.4547  130.8995  119.5598 O   0  0  0  0  0  0  0  0  0  0  0  0
  131.0387  130.0735  119.4670 C   0  0  0  0  0  0  0  0  0  0  0  0
  129.7070  130.2422  119.0241 C   0  0  0  0  0  0  0  0  0  0  0  0
  1  2  2  0
  1  3  1  0
  1  4  1  0
  2  5  1  0
  2  6  1  0
  3  7  1  0
  5  8  2  0
  3  9  2  0
  8  9  1  0
M  END
$$$$
