
     RDKit          3D

  9  9  0  0  0  0  0  0  0  0999 V2000
  128.0184  130.8184  121.2531 C   0  0  0  0  0  0  0  0  0  0  0  0
  128.2713  130.8899  120.0651 C   0  0  0  0  0  0  0  0  0  0  0  0
  128.9010  131.0675  122.0631 C   0  0  0  0  0  0  0  0  0  0  0  0
  127.2430  130.4680  119.0200 C   0  0  0  0  0  0  0  0  0  0  0  0
  130.0028  131.3430  121.9007 C   0  0  0  0  0  0  0  0  0  0  0  0
  131.0750  131.5734  122.9664 C   0  0  0  0  0  0  0  0  0  0  0  0
  129.7040  131.2321  119.8964 C   0  0  0  0  0  0  0  0  0  0  0  0
  126.4505  131.6220  118.6132 O   0  0  0  0  0  0  0  0  0  0  0  0
  130.4283  131.4439  120.7687 C   0  0  0  0  0  0  0  0  0  0  0  0
  1  2  1  0
  1  3  2  0
  2  4  1  0
  3  5  1  0
  5  6  1  0
  2  7  2  0
  4  8  1  0
  5  9  2  0
  7  9  1  0
M  END
$$$$
