
     RDKit          3D

  9  9  0  0  0  0  0  0  0  0999 V2000
  129.0694  131.8049  121.7010 C   0  0  0  0  0  0  0  0  0  0  0  0
  130.2348  132.2605  122.1189 C   0  0  0  0  0  0  0  0  0  0  0  0
  131.2836  132.4054  121.5366 C   0  0  0  0  0  0  0  0  0  0  0  0
  132.4986  133.0858  122.0933 F   0  0  0  0  0  0  0  0  0  0  0  0
  130.4155  132.6457  123.4503 F   0  0  0  0  0  0  0  0  0  0  0  0
  128.9804  131.4282  120.3775 C   0  0  0  0  0  0  0  0  0  0  0  0
  131.3286  132.1080  120.2469 C   0  0  0  0  0  0  0  0  0  0  0  0
  132.4229  132.3426  119.4496 F   0  0  0  0  0  0  0  0  0  0  0  0
  129.9559  131.5111  119.6376 C   0  0  0  0  0  0  0  0  0  0  0  0
  1  2  1  0
  2  3  2  0
  3  4  1  0
  2  5  1  0
  1  6  2  0
  3  7  1  0
  7  8  1  0
  6  9  1  0
  7  9  2  0
M  END
$$$$
