
     RDKit          3D

  9  9  0  0  0  0  0  0  0  0999 V2000
  135.6132  130.9736  118.1529 C   0  0  0  0  0  0  0  0  0  0  0  0
  134.5165  130.4627  118.4787 C   0  0  0  0  0  0  0  0  0  0  0  0
  136.9451  130.3871  118.0993 C   0  0  0  0  0  0  0  0  0  0  0  0
  136.7940  129.1318  118.5938 C   0  0  0  0  0  0  0  0  0  0  0  0
  135.3967  132.5533  117.6029 C   0  0  0  0  0  0  0  0  0  0  0  0
  133.3003  131.0950  118.5746 O   0  0  0  0  0  0  0  0  0  0  0  0
  135.5980  128.5443  118.9706 C   0  0  0  0  0  0  0  0  0  0  0  0
  135.5977  127.1623  119.4611 F   0  0  0  0  0  0  0  0  0  0  0  0
  134.5177  129.2138  118.9234 C   0  0  0  0  0  0  0  0  0  0  0  0
  1  2  1  0
  1  3  2  0
  3  4  1  0
  1  5  1  0
  2  6  2  0
  4  7  2  0
  7  8  1  0
  2  9  1  0
  7  9  1  0
M  END
$$$$
