
     RDKit          3D

  9  9  0  0  0  0  0  0  0  0999 V2000
  129.1974  130.3962  121.2928 C   0  0  0  0  0  0  0  0  0  0  0  0
  130.3557  130.6167  121.7742 C   0  0  0  0  0  0  0  0  0  0  0  0
  131.4318  130.0109  121.4298 C   0  0  0  0  0  0  0  0  0  0  0  0
  130.4566  131.3710  122.8817 O   0  0  0  0  0  0  0  0  0  0  0  0
  127.9998  131.0659  121.7919 C   0  0  0  0  0  0  0  0  0  0  0  0
  129.3068  132.0052  123.4780 C   0  0  0  0  0  0  0  0  0  0  0  0
  128.4347  131.8715  122.9726 C   0  0  0  0  0  0  0  0  0  0  0  0
  132.6021  129.9516  122.1056 O   0  0  0  0  0  0  0  0  0  0  0  0
  131.5350  129.4499  120.1519 O   0  0  0  0  0  0  0  0  0  0  0  0
  1  2  2  0
  2  3  1  0
  2  4  1  0
  1  5  1  0
  4  6  1  0
  5  7  2  0
  6  7  1  0
  3  8  2  0
  3  9  1  0
M  END
$$$$
