
     RDKit          3D

 10 11  0  0  0  0  0  0  0  0999 V2000
  129.1856  130.9948  121.1414 C   0  0  0  0  0  0  0  0  0  0  0  0
  130.3787  130.9362  121.5666 C   0  0  0  0  0  0  0  0  0  0  0  0
  131.3350  130.4509  120.9903 C   0  0  0  0  0  0  0  0  0  0  0  0
  132.7398  130.3449  121.4826 C   0  0  0  0  0  0  0  0  0  0  0  0
  130.7728  131.4811  122.9752 C   0  0  0  0  0  0  0  0  0  0  0  0
  132.0370  131.4076  123.6136 C   0  0  0  0  0  0  0  0  0  0  0  0
  128.8110  130.5082  119.9272 C   0  0  0  0  0  0  0  0  0  0  0  0
  129.9159  129.9028  119.2992 C   0  0  0  0  0  0  0  0  0  0  0  0
  131.2050  129.8248  119.8653 C   0  0  0  0  0  0  0  0  0  0  0  0
  132.8033  130.7503  123.0338 C   0  0  0  0  0  0  0  0  0  0  0  0
  1  2  2  0
  2  3  1  0
  3  4  1  0
  2  5  1  0
  5  6  2  0
  1  7  1  0
  7  8  2  0
  3  9  2  0
  8  9  1  0
  4 10  2  0
  6 10  1  0
M  END
$$$$
