
     RDKit          3D

 10 11  0  0  0  0  0  0  0  0999 V2000
  130.4168  131.1237  123.4034 C   0  0  0  0  0  0  0  0  0  0  0  0
  129.6464  131.2309  122.3556 C   0  0  0  0  0  0  0  0  0  0  0  0
  130.3429  130.1528  124.4955 C   0  0  0  0  0  0  0  0  0  0  0  0
  129.8064  131.8005  121.1613 C   0  0  0  0  0  0  0  0  0  0  0  0
  131.4478  132.1478  123.2716 C   0  0  0  0  0  0  0  0  0  0  0  0
  130.9689  132.7153  121.2680 C   0  0  0  0  0  0  0  0  0  0  0  0
  131.1421  133.6344  120.0076 C   0  0  0  0  0  0  0  0  0  0  0  0
  132.3194  134.4755  120.6461 C   0  0  0  0  0  0  0  0  0  0  0  0
  132.4410  133.9973  122.0551 C   0  0  0  0  0  0  0  0  0  0  0  0
  131.6254  132.8849  122.4017 C   0  0  0  0  0  0  0  0  0  0  0  0
  1  2  1  0
  1  3  2  0
  2  4  2  0
  1  5  1  0
  4  6  1  0
  6  7  1  0
  7  8  1  0
  8  9  1  0
  5 10  1  0
  6 10  2  0
  9 10  1  0
M  END
$$$$
