
     RDKit          3D

 10 10  0  0  0  0  0  0  0  0999 V2000
  136.7452  126.8353  117.7916 Cl  0  0  0  0  0  0  0  0  0  0  0  0
  136.9070  128.2812  117.9086 C   0  0  0  0  0  0  0  0  0  0  0  0
  136.3792  129.0040  116.9303 C   0  0  0  0  0  0  0  0  0  0  0  0
  137.5858  128.7053  119.1518 C   0  0  0  0  0  0  0  0  0  0  0  0
  137.6696  130.0741  119.4379 C   0  0  0  0  0  0  0  0  0  0  0  0
  135.5016  128.5378  115.8192 Cl  0  0  0  0  0  0  0  0  0  0  0  0
  138.4356  130.5010  120.5448 C   0  0  0  0  0  0  0  0  0  0  0  0
  136.4973  130.5494  117.0522 C   0  0  0  0  0  0  0  0  0  0  0  0
  135.8971  131.3338  116.1563 F   0  0  0  0  0  0  0  0  0  0  0  0
  137.0800  131.0704  118.5803 C   0  0  0  0  0  0  0  0  0  0  0  0
  1  2  1  0
  2  3  2  0
  2  4  1  0
  4  5  2  0
  3  6  1  0
  5  7  1  0
  3  8  1  0
  8  9  1  0
  5 10  1  0
  8 10  2  0
M  END
$$$$
