
     RDKit          3D

 10 11  0  0  0  0  0  0  0  0999 V2000
  136.3914  127.2705  117.0970 C   0  0  0  0  0  0  0  0  0  0  0  0
  137.5613  127.5059  117.7206 O   0  0  0  0  0  0  0  0  0  0  0  0
  135.3937  127.9995  117.2665 C   0  0  0  0  0  0  0  0  0  0  0  0
  137.3708  128.6141  118.6170 C   0  0  0  0  0  0  0  0  0  0  0  0
  138.2885  129.1011  119.4323 O   0  0  0  0  0  0  0  0  0  0  0  0
  136.0278  129.0659  118.5330 C   0  0  0  0  0  0  0  0  0  0  0  0
  135.6136  129.9765  119.2990 C   0  0  0  0  0  0  0  0  0  0  0  0
  134.2552  130.2776  119.3336 O   0  0  0  0  0  0  0  0  0  0  0  0
  136.5590  130.5305  120.1038 O   0  0  0  0  0  0  0  0  0  0  0  0
  137.8630  130.2733  120.0680 C   0  0  0  0  0  0  0  0  0  0  0  0
  1  2  1  0
  1  3  2  0
  2  4  1  0
  4  5  1  0
  3  6  1  0
  4  6  2  0
  6  7  1  0
  7  8  2  0
  7  9  1  0
  5 10  1  0
  9 10  1  0
M  END
$$$$
