
     RDKit          3D

 10 10  0  0  0  0  0  0  0  0999 V2000
  135.6132  130.9736  118.1529 C   0  0  0  0  0  0  0  0  0  0  0  0
  134.5165  130.4627  118.4787 C   0  0  0  0  0  0  0  0  0  0  0  0
  136.9451  130.3871  118.0993 C   0  0  0  0  0  0  0  0  0  0  0  0
  136.7940  129.1318  118.5938 C   0  0  0  0  0  0  0  0  0  0  0  0
  133.3035  131.2287  118.4679 F   0  0  0  0  0  0  0  0  0  0  0  0
  138.0581  128.3143  118.7580 C   0  0  0  0  0  0  0  0  0  0  0  0
  139.1839  129.0220  119.0734 O   0  0  0  0  0  0  0  0  0  0  0  0
  137.8803  127.0913  118.6152 O   0  0  0  0  0  0  0  0  0  0  0  0
  135.6813  128.3725  119.0787 C   0  0  0  0  0  0  0  0  0  0  0  0
  134.4216  129.1900  118.9875 C   0  0  0  0  0  0  0  0  0  0  0  0
  1  2  1  0
  1  3  2  0
  3  4  1  0
  2  5  1  0
  4  6  1  0
  6  7  2  0
  6  8  1  0
  4  9  2  0
  2 10  2  0
  9 10  1  0
M  END
$$$$
