
     RDKit          3D

 10  9  0  0  0  0  0  0  0  0999 V2000
  136.1981  129.5437  117.5866 C   0  0  0  0  0  0  0  0  0  0  0  0
  136.3854  128.1682  117.5214 C   0  0  0  0  0  0  0  0  0  0  0  0
  135.5114  130.3207  118.5755 C   0  0  0  0  0  0  0  0  0  0  0  0
  134.8764  129.5470  119.5506 C   0  0  0  0  0  0  0  0  0  0  0  0
  135.2876  131.7107  118.5428 C   0  0  0  0  0  0  0  0  0  0  0  0
  135.5682  132.4722  117.4119 C   0  0  0  0  0  0  0  0  0  0  0  0
  133.9738  130.0575  120.5390 C   0  0  0  0  0  0  0  0  0  0  0  0
  134.5375  132.2122  119.7240 F   0  0  0  0  0  0  0  0  0  0  0  0
  135.3804  128.2376  119.2642 F   0  0  0  0  0  0  0  0  0  0  0  0
  135.9280  127.5097  118.5877 O   0  0  0  0  0  0  0  0  0  0  0  0
  1  2  2  3
  1  3  1  0
  3  4  2  3
  3  5  1  0
  5  6  2  0
  4  7  1  0
  5  8  1  0
  4  9  1  0
  2 10  1  0
M  END
$$$$
