
     RDKit          3D

 10 11  0  0  0  0  0  0  0  0999 V2000
  129.1856  130.9948  121.1414 C   0  0  0  0  0  0  0  0  0  0  0  0
  130.3787  130.9362  121.5666 C   0  0  0  0  0  0  0  0  0  0  0  0
  130.7996  131.3884  122.8897 C   0  0  0  0  0  0  0  0  0  0  0  0
  131.3821  130.3017  120.7575 C   0  0  0  0  0  0  0  0  0  0  0  0
  128.7797  130.2674  119.9658 C   0  0  0  0  0  0  0  0  0  0  0  0
  129.8693  129.6505  119.3461 C   0  0  0  0  0  0  0  0  0  0  0  0
  132.7125  130.2450  121.4496 C   0  0  0  0  0  0  0  0  0  0  0  0
  132.1843  131.2131  123.3526 C   0  0  0  0  0  0  0  0  0  0  0  0
  131.0975  129.7180  119.6182 C   0  0  0  0  0  0  0  0  0  0  0  0
  133.0558  130.6176  122.6615 N   0  0  0  0  0  0  0  0  0  0  0  0
  1  2  2  0
  2  3  1  0
  2  4  1  0
  1  5  1  0
  5  6  2  0
  4  7  1  0
  3  8  2  0
  4  9  2  0
  6  9  1  0
  7 10  2  0
  8 10  1  0
M  END
$$$$
