
     RDKit          3D

 10 10  0  0  0  0  0  0  0  0999 V2000
  130.4168  131.1237  123.4034 C   0  0  0  0  0  0  0  0  0  0  0  0
  129.6464  131.2309  122.3556 C   0  0  0  0  0  0  0  0  0  0  0  0
  129.8703  131.9985  121.3290 C   0  0  0  0  0  0  0  0  0  0  0  0
  128.4398  130.4880  122.2225 C   0  0  0  0  0  0  0  0  0  0  0  0
  131.5081  132.0246  123.6078 C   0  0  0  0  0  0  0  0  0  0  0  0
  131.9747  132.2490  124.8813 F   0  0  0  0  0  0  0  0  0  0  0  0
  130.3945  131.5621  120.0776 C   0  0  0  0  0  0  0  0  0  0  0  0
  131.8769  132.9494  122.6320 C   0  0  0  0  0  0  0  0  0  0  0  0
  129.7369  130.6003  119.3896 O   0  0  0  0  0  0  0  0  0  0  0  0
  131.1026  133.2003  121.4585 C   0  0  0  0  0  0  0  0  0  0  0  0
  1  2  2  0
  2  3  1  0
  2  4  1  0
  1  5  1  0
  5  6  1  0
  3  7  1  0
  5  8  2  0
  7  9  1  0
  3 10  2  0
  8 10  1  0
M  END
$$$$
