
     RDKit          3D

 10 10  0  0  0  0  0  0  0  0999 V2000
  136.7452  126.8353  117.7916 Cl  0  0  0  0  0  0  0  0  0  0  0  0
  136.9070  128.2812  117.9086 C   0  0  0  0  0  0  0  0  0  0  0  0
  136.3792  129.0040  116.9303 C   0  0  0  0  0  0  0  0  0  0  0  0
  137.5858  128.7053  119.1518 C   0  0  0  0  0  0  0  0  0  0  0  0
  137.6696  130.0741  119.4379 C   0  0  0  0  0  0  0  0  0  0  0  0
  135.5016  128.5378  115.8192 Cl  0  0  0  0  0  0  0  0  0  0  0  0
  138.4356  130.5010  120.5448 C   0  0  0  0  0  0  0  0  0  0  0  0
  136.8302  130.9758  118.7136 C   0  0  0  0  0  0  0  0  0  0  0  0
  136.6737  132.1990  119.1594 F   0  0  0  0  0  0  0  0  0  0  0  0
  136.2724  130.5532  117.2688 C   0  0  0  0  0  0  0  0  0  0  0  0
  1  2  1  0
  2  3  2  0
  2  4  1  0
  4  5  2  0
  3  6  1  0
  5  7  1  0
  5  8  1  0
  8  9  1  0
  3 10  1  0
  8 10  2  0
M  END
$$$$
