
     RDKit          3D

 10 10  0  0  0  0  0  0  0  0999 V2000
  128.0184  130.8184  121.2531 C   0  0  0  0  0  0  0  0  0  0  0  0
  128.2713  130.8899  120.0651 C   0  0  0  0  0  0  0  0  0  0  0  0
  128.8319  131.1749  122.1478 C   0  0  0  0  0  0  0  0  0  0  0  0
  127.3500  130.3884  118.9166 C   0  0  0  0  0  0  0  0  0  0  0  0
  126.2099  130.1105  119.3484 O   0  0  0  0  0  0  0  0  0  0  0  0
  130.0567  131.6984  121.8681 C   0  0  0  0  0  0  0  0  0  0  0  0
  129.6561  131.4073  119.8799 C   0  0  0  0  0  0  0  0  0  0  0  0
  129.9168  131.3073  118.5656 F   0  0  0  0  0  0  0  0  0  0  0  0
  130.4712  131.7792  120.7701 C   0  0  0  0  0  0  0  0  0  0  0  0
  127.9751  130.6106  117.7765 O   0  0  0  0  0  0  0  0  0  0  0  0
  1  2  2  0
  1  3  1  0
  2  4  1  0
  4  5  2  0
  3  6  2  0
  2  7  1  0
  7  8  1  0
  6  9  1  0
  7  9  2  0
  4 10  1  0
M  END
$$$$
