
     RDKit          3D

 10 10  0  0  0  0  0  0  0  0999 V2000
  136.1746  127.9468  117.0311 C   0  0  0  0  0  0  0  0  0  0  0  0
  135.7857  129.0854  117.4188 O   0  0  0  0  0  0  0  0  0  0  0  0
  137.3673  127.5409  117.7658 C   0  0  0  0  0  0  0  0  0  0  0  0
  135.8967  129.5314  118.6300 C   0  0  0  0  0  0  0  0  0  0  0  0
  134.9643  130.1612  119.3341 C   0  0  0  0  0  0  0  0  0  0  0  0
  133.6282  130.3025  118.6907 C   0  0  0  0  0  0  0  0  0  0  0  0
  137.1982  129.3099  119.3344 C   0  0  0  0  0  0  0  0  0  0  0  0
  132.7071  131.2087  119.3271 O   0  0  0  0  0  0  0  0  0  0  0  0
  137.4694  128.1845  118.9312 O   0  0  0  0  0  0  0  0  0  0  0  0
  132.2155  130.8697  120.5960 C   0  0  0  0  0  0  0  0  0  0  0  0
  1  2  1  0
  1  3  1  0
  2  4  1  0
  4  5  2  3
  5  6  1  0
  4  7  1  0
  6  8  1  0
  3  9  1  0
  7  9  1  0
  8 10  1  0
M  END
$$$$
