
     RDKit          3D

 10 11  0  0  0  0  0  0  0  0999 V2000
  136.4770  127.3101  117.1795 C   0  0  0  0  0  0  0  0  0  0  0  0
  137.5514  127.5875  117.8869 C   0  0  0  0  0  0  0  0  0  0  0  0
  138.1953  128.7827  117.9012 C   0  0  0  0  0  0  0  0  0  0  0  0
  135.8541  128.3912  116.5838 C   0  0  0  0  0  0  0  0  0  0  0  0
  139.2566  129.1689  118.7552 O   0  0  0  0  0  0  0  0  0  0  0  0
  137.2718  129.8403  117.4517 C   0  0  0  0  0  0  0  0  0  0  0  0
  139.2451  130.0317  119.4213 C   0  0  0  0  0  0  0  0  0  0  0  0
  138.1279  130.5150  119.9717 C   0  0  0  0  0  0  0  0  0  0  0  0
  137.0570  130.7124  118.9301 C   0  0  0  0  0  0  0  0  0  0  0  0
  136.1903  129.8713  116.7459 C   0  0  0  0  0  0  0  0  0  0  0  0
  1  2  1  0
  2  3  2  0
  1  4  2  0
  3  5  1  0
  3  6  1  0
  5  7  1  0
  7  8  1  0
  6  9  1  0
  8  9  1  0
  4 10  1  0
  6 10  2  0
M  END
$$$$
