
     RDKit          3D

  9  9  0  0  0  0  0  0  0  0999 V2000
  128.3229  130.7658  121.7641 C   0  0  0  0  0  0  0  0  0  0  0  0
  129.4589  130.8440  122.3670 C   0  0  0  0  0  0  0  0  0  0  0  0
  128.3019  131.1033  120.5078 C   0  0  0  0  0  0  0  0  0  0  0  0
  129.6208  130.6152  123.9773 Cl  0  0  0  0  0  0  0  0  0  0  0  0
  127.0120  130.8646  119.7406 C   0  0  0  0  0  0  0  0  0  0  0  0
  129.5252  131.4804  120.0819 C   0  0  0  0  0  0  0  0  0  0  0  0
  127.0133  131.5728  118.4636 C   0  0  0  0  0  0  0  0  0  0  0  0
  127.2266  131.0313  117.3026 F   0  0  0  0  0  0  0  0  0  0  0  0
  130.3892  131.4109  120.9344 C   0  0  0  0  0  0  0  0  0  0  0  0
  1  2  2  0
  1  3  1  0
  2  4  1  0
  3  5  1  0
  3  6  2  0
  5  7  2  3
  7  8  1  0
  2  9  1  0
  6  9  1  0
M  END
$$$$
