
     RDKit          3D

 10 10  0  0  0  0  0  0  0  0999 V2000
  128.5500  130.6278  121.3982 C   0  0  0  0  0  0  0  0  0  0  0  0
  129.6438  130.7344  122.0921 O   0  0  0  0  0  0  0  0  0  0  0  0
  130.6989  131.3800  121.8997 C   0  0  0  0  0  0  0  0  0  0  0  0
  130.8214  131.9554  120.8638 C   0  0  0  0  0  0  0  0  0  0  0  0
  131.2152  131.0303  123.0898 C   0  0  0  0  0  0  0  0  0  0  0  0
  132.1089  132.8393  120.6137 C   0  0  0  0  0  0  0  0  0  0  0  0
  132.1781  133.6727  119.4763 C   0  0  0  0  0  0  0  0  0  0  0  0
  132.8241  132.5782  121.7948 C   0  0  0  0  0  0  0  0  0  0  0  0
  130.9523  130.5030  124.2603 C   0  0  0  0  0  0  0  0  0  0  0  0
  132.5149  131.8662  122.7949 C   0  0  0  0  0  0  0  0  0  0  0  0
  1  2  1  0
  2  3  1  0
  3  4  2  0
  3  5  1  0
  4  6  1  0
  6  7  1  0
  6  8  2  0
  5  9  1  0
  5 10  2  0
  8 10  1  0
M  END
$$$$
