
     RDKit          3D

 10 11  0  0  0  0  0  0  0  0999 V2000
  129.1856  130.9948  121.1414 C   0  0  0  0  0  0  0  0  0  0  0  0
  130.3787  130.9362  121.5666 C   0  0  0  0  0  0  0  0  0  0  0  0
  130.7996  131.3884  122.8897 C   0  0  0  0  0  0  0  0  0  0  0  0
  131.3821  130.3017  120.7575 C   0  0  0  0  0  0  0  0  0  0  0  0
  128.7797  130.2674  119.9658 C   0  0  0  0  0  0  0  0  0  0  0  0
  132.7201  130.1003  121.1292 C   0  0  0  0  0  0  0  0  0  0  0  0
  132.2006  131.1037  123.3156 C   0  0  0  0  0  0  0  0  0  0  0  0
  132.9039  130.3147  122.2699 C   0  0  0  0  0  0  0  0  0  0  0  0
  130.6234  129.9616  119.4754 C   0  0  0  0  0  0  0  0  0  0  0  0
  130.0588  131.7652  123.7153 O   0  0  0  0  0  0  0  0  0  0  0  0
  1  2  2  0
  2  3  1  0
  2  4  1  0
  1  5  1  0
  4  6  2  0
  3  7  1  0
  6  8  1  0
  7  8  2  0
  4  9  1  0
  5  9  2  0
  3 10  2  0
M  END
$$$$
