
     RDKit          3D

 10 11  0  0  0  0  0  0  0  0999 V2000
  136.8502  126.9686  117.2057 C   0  0  0  0  0  0  0  0  0  0  0  0
  137.4292  127.2274  118.3429 C   0  0  0  0  0  0  0  0  0  0  0  0
  137.5032  128.5818  118.9563 C   0  0  0  0  0  0  0  0  0  0  0  0
  136.1565  128.0432  117.1012 C   0  0  0  0  0  0  0  0  0  0  0  0
  138.1919  129.0211  119.9581 O   0  0  0  0  0  0  0  0  0  0  0  0
  136.5177  129.2993  118.2992 C   0  0  0  0  0  0  0  0  0  0  0  0
  135.8417  129.2324  117.4484 C   0  0  0  0  0  0  0  0  0  0  0  0
  138.5597  130.1089  119.8911 C   0  0  0  0  0  0  0  0  0  0  0  0
  137.6269  131.0395  119.5646 C   0  0  0  0  0  0  0  0  0  0  0  0
  136.6904  130.8167  118.9326 O   0  0  0  0  0  0  0  0  0  0  0  0
  1  2  2  0
  2  3  1  0
  1  4  1  0
  3  5  1  0
  3  6  2  0
  4  7  2  0
  6  7  1  0
  5  8  1  0
  8  9  1  0
  6 10  1  0
  9 10  1  0
M  END
$$$$
