
     RDKit          3D

 10 10  0  0  0  0  0  0  0  0999 V2000
  135.7675  129.7549  117.5138 C   0  0  0  0  0  0  0  0  0  0  0  0
  136.1745  128.4532  117.6548 C   0  0  0  0  0  0  0  0  0  0  0  0
  137.4192  128.0173  117.5408 C   0  0  0  0  0  0  0  0  0  0  0  0
  135.1533  127.4477  117.8528 F   0  0  0  0  0  0  0  0  0  0  0  0
  136.7796  130.7437  117.4710 C   0  0  0  0  0  0  0  0  0  0  0  0
  134.3569  130.1403  117.7206 F   0  0  0  0  0  0  0  0  0  0  0  0
  138.4173  129.0506  117.5108 C   0  0  0  0  0  0  0  0  0  0  0  0
  136.2951  132.1727  117.3556 C   0  0  0  0  0  0  0  0  0  0  0  0
  139.8578  128.7040  117.7463 C   0  0  0  0  0  0  0  0  0  0  0  0
  138.0692  130.3475  117.4906 C   0  0  0  0  0  0  0  0  0  0  0  0
  1  2  1  0
  2  3  2  0
  2  4  1  0
  1  5  2  0
  1  6  1  0
  3  7  1  0
  5  8  1  0
  7  9  1  0
  5 10  1  0
  7 10  2  0
M  END
$$$$
