
     RDKit          3D

 10 10  0  0  0  0  0  0  0  0999 V2000
  129.0258  130.3649  122.6316 Cl  0  0  0  0  0  0  0  0  0  0  0  0
  129.2955  130.8965  121.3810 C   0  0  0  0  0  0  0  0  0  0  0  0
  128.5048  130.6204  120.3703 C   0  0  0  0  0  0  0  0  0  0  0  0
  130.5426  131.7499  121.2840 C   0  0  0  0  0  0  0  0  0  0  0  0
  130.7880  132.3093  120.0121 C   0  0  0  0  0  0  0  0  0  0  0  0
  131.9507  133.1784  119.8668 C   0  0  0  0  0  0  0  0  0  0  0  0
  132.4019  133.8025  121.0140 C   0  0  0  0  0  0  0  0  0  0  0  0
  129.0141  131.1681  118.9913 C   0  0  0  0  0  0  0  0  0  0  0  0
  132.1434  135.2098  120.9738 F   0  0  0  0  0  0  0  0  0  0  0  0
  129.8838  131.6511  119.0397 C   0  0  0  0  0  0  0  0  0  0  0  0
  1  2  1  0
  2  3  2  0
  2  4  1  0
  4  5  2  0
  5  6  1  0
  6  7  1  0
  3  8  1  0
  7  9  1  0
  5 10  1  0
  8 10  2  0
M  END
$$$$
