
     RDKit          3D

  9  9  0  0  0  0  0  0  0  0999 V2000
  129.1238  130.4780  122.7022 Cl  0  0  0  0  0  0  0  0  0  0  0  0
  130.0489  131.1433  121.9935 C   0  0  0  0  0  0  0  0  0  0  0  0
  131.2518  131.6806  122.6389 C   0  0  0  0  0  0  0  0  0  0  0  0
  132.2949  132.3740  121.9200 C   0  0  0  0  0  0  0  0  0  0  0  0
  131.2390  131.3454  123.9707 C   0  0  0  0  0  0  0  0  0  0  0  0
  129.9083  131.2684  120.5731 C   0  0  0  0  0  0  0  0  0  0  0  0
  132.9922  133.3251  122.5273 F   0  0  0  0  0  0  0  0  0  0  0  0
  131.9250  132.4353  120.6524 C   0  0  0  0  0  0  0  0  0  0  0  0
  130.9402  131.9338  119.8801 C   0  0  0  0  0  0  0  0  0  0  0  0
  1  2  1  0
  2  3  2  0
  3  4  1  0
  3  5  1  0
  2  6  1  0
  4  7  1  0
  4  8  2  0
  6  9  2  0
  8  9  1  0
M  END
$$$$
