
     RDKit          3D

 10 11  0  0  0  0  0  0  0  0999 V2000
  128.5500  130.6278  121.3982 C   0  0  0  0  0  0  0  0  0  0  0  0
  129.6438  130.7344  122.0921 C   0  0  0  0  0  0  0  0  0  0  0  0
  130.8842  130.7171  121.8464 C   0  0  0  0  0  0  0  0  0  0  0  0
  131.9760  130.8711  122.8813 C   0  0  0  0  0  0  0  0  0  0  0  0
  128.7497  130.4087  120.3528 O   0  0  0  0  0  0  0  0  0  0  0  0
  130.8330  130.4017  120.4323 C   0  0  0  0  0  0  0  0  0  0  0  0
  129.8090  130.2124  119.6813 C   0  0  0  0  0  0  0  0  0  0  0  0
  129.9455  131.2113  123.6642 C   0  0  0  0  0  0  0  0  0  0  0  0
  130.9895  131.0092  123.9904 C   0  0  0  0  0  0  0  0  0  0  0  0
  131.6778  131.1070  125.3586 C   0  0  0  0  0  0  0  0  0  0  0  0
  1  2  2  0
  2  3  1  0
  3  4  1  0
  1  5  1  0
  3  6  2  0
  5  7  1  0
  6  7  1  0
  2  8  1  0
  4  9  2  0
  8  9  1  0
  9 10  1  0
M  END
$$$$
