
     RDKit          3D

 10 10  0  0  0  0  0  0  0  0999 V2000
  136.8495  126.8717  118.1119 Cl  0  0  0  0  0  0  0  0  0  0  0  0
  137.1665  127.8787  117.4213 C   0  0  0  0  0  0  0  0  0  0  0  0
  138.0950  128.8913  117.9651 C   0  0  0  0  0  0  0  0  0  0  0  0
  137.4700  130.0664  118.6021 C   0  0  0  0  0  0  0  0  0  0  0  0
  136.3214  128.1259  116.3226 C   0  0  0  0  0  0  0  0  0  0  0  0
  137.1275  131.1755  117.8333 C   0  0  0  0  0  0  0  0  0  0  0  0
  136.3242  130.9609  116.6917 C   0  0  0  0  0  0  0  0  0  0  0  0
  137.3595  132.5638  118.1665 C   0  0  0  0  0  0  0  0  0  0  0  0
  137.0321  133.6700  117.2732 F   0  0  0  0  0  0  0  0  0  0  0  0
  135.6263  129.4229  116.1057 C   0  0  0  0  0  0  0  0  0  0  0  0
  1  2  1  0
  2  3  1  0
  3  4  2  0
  2  5  2  0
  4  6  1  0
  6  7  1  0
  6  8  2  3
  8  9  1  0
  5 10  1  0
  7 10  2  0
M  END
$$$$
