
     RDKit          3D

 10 10  0  0  0  0  0  0  0  0999 V2000
  128.3229  130.7658  121.7641 C   0  0  0  0  0  0  0  0  0  0  0  0
  129.4589  130.8440  122.3670 C   0  0  0  0  0  0  0  0  0  0  0  0
  128.3019  131.1033  120.5078 C   0  0  0  0  0  0  0  0  0  0  0  0
  129.6208  130.6152  123.9773 Cl  0  0  0  0  0  0  0  0  0  0  0  0
  130.5029  131.2366  121.5137 C   0  0  0  0  0  0  0  0  0  0  0  0
  130.2290  131.4674  120.2603 C   0  0  0  0  0  0  0  0  0  0  0  0
  131.4791  131.9840  119.5059 F   0  0  0  0  0  0  0  0  0  0  0  0
  126.8213  130.9710  119.9733 O   0  0  0  0  0  0  0  0  0  0  0  0
  129.2722  131.3843  119.7639 C   0  0  0  0  0  0  0  0  0  0  0  0
  126.8289  131.1790  118.5718 C   0  0  0  0  0  0  0  0  0  0  0  0
  1  2  2  0
  1  3  1  0
  2  4  1  0
  2  5  1  0
  5  6  2  0
  6  7  1  0
  3  8  1  0
  3  9  2  0
  6  9  1  0
  8 10  1  0
M  END
$$$$
