
     RDKit          3D

 10 10  0  0  0  0  0  0  0  0999 V2000
  136.8495  126.8717  118.1119 Cl  0  0  0  0  0  0  0  0  0  0  0  0
  137.1665  127.8787  117.4213 C   0  0  0  0  0  0  0  0  0  0  0  0
  138.0950  128.8913  117.9651 C   0  0  0  0  0  0  0  0  0  0  0  0
  137.4700  130.0664  118.6021 C   0  0  0  0  0  0  0  0  0  0  0  0
  136.3214  128.1259  116.3226 C   0  0  0  0  0  0  0  0  0  0  0  0
  137.4687  130.1547  120.0381 C   0  0  0  0  0  0  0  0  0  0  0  0
  136.8587  131.0468  117.8249 C   0  0  0  0  0  0  0  0  0  0  0  0
  136.1723  130.6612  116.6230 C   0  0  0  0  0  0  0  0  0  0  0  0
  135.9521  129.3766  116.0907 C   0  0  0  0  0  0  0  0  0  0  0  0
  136.8357  132.1210  118.1620 O   0  0  0  0  0  0  0  0  0  0  0  0
  1  2  1  0
  2  3  1  0
  3  4  2  0
  2  5  2  0
  4  6  1  0
  4  7  1  0
  7  8  1  0
  5  9  1  0
  8  9  2  0
  7 10  2  0
M  END
$$$$
