
     RDKit          3D

 10  9  0  0  0  0  0  0  0  0999 V2000
  136.8495  126.8717  118.1119 Cl  0  0  0  0  0  0  0  0  0  0  0  0
  137.1665  127.8787  117.4213 C   0  0  0  0  0  0  0  0  0  0  0  0
  138.0950  128.8913  117.9651 C   0  0  0  0  0  0  0  0  0  0  0  0
  137.4700  130.0664  118.6021 C   0  0  0  0  0  0  0  0  0  0  0  0
  136.3214  128.1259  116.3226 C   0  0  0  0  0  0  0  0  0  0  0  0
  137.4687  130.1547  120.0381 C   0  0  0  0  0  0  0  0  0  0  0  0
  136.8587  131.0468  117.8249 C   0  0  0  0  0  0  0  0  0  0  0  0
  136.5596  132.3214  118.3168 C   0  0  0  0  0  0  0  0  0  0  0  0
  135.9307  133.2989  117.4424 F   0  0  0  0  0  0  0  0  0  0  0  0
  135.4045  128.8479  116.0247 F   0  0  0  0  0  0  0  0  0  0  0  0
  1  2  1  0
  2  3  1  0
  3  4  2  3
  2  5  2  3
  4  6  1  0
  4  7  1  0
  7  8  2  3
  8  9  1  0
  5 10  1  0
M  END
$$$$
