
     RDKit          3D

 10 10  0  0  0  0  0  0  0  0999 V2000
  129.1974  130.3962  121.2928 C   0  0  0  0  0  0  0  0  0  0  0  0
  130.3557  130.6167  121.7742 C   0  0  0  0  0  0  0  0  0  0  0  0
  130.6608  131.4247  122.9364 C   0  0  0  0  0  0  0  0  0  0  0  0
  131.3265  129.9135  121.0275 C   0  0  0  0  0  0  0  0  0  0  0  0
  132.7559  129.9730  121.3993 C   0  0  0  0  0  0  0  0  0  0  0  0
  131.0071  129.3304  120.1340 O   0  0  0  0  0  0  0  0  0  0  0  0
  132.0250  131.6253  123.5816 C   0  0  0  0  0  0  0  0  0  0  0  0
  131.9274  131.8215  124.9458 C   0  0  0  0  0  0  0  0  0  0  0  0
  130.5579  131.3229  125.4052 C   0  0  0  0  0  0  0  0  0  0  0  0
  130.0811  130.7046  124.3953 C   0  0  0  0  0  0  0  0  0  0  0  0
  1  2  2  0
  2  3  1  0
  2  4  1  0
  4  5  1  0
  4  6  2  0
  3  7  1  0
  7  8  1  0
  8  9  1  0
  3 10  1  0
  9 10  1  0
M  END
$$$$
