
     RDKit          3D

 10 10  0  0  0  0  0  0  0  0999 V2000
  128.7928  130.3683  122.2574 Cl  0  0  0  0  0  0  0  0  0  0  0  0
  129.6904  131.2402  121.8012 C   0  0  0  0  0  0  0  0  0  0  0  0
  131.0094  131.4679  122.5182 C   0  0  0  0  0  0  0  0  0  0  0  0
  129.5432  131.8702  120.6464 C   0  0  0  0  0  0  0  0  0  0  0  0
  130.6111  132.8273  120.3065 C   0  0  0  0  0  0  0  0  0  0  0  0
  131.7167  132.9779  121.1570 C   0  0  0  0  0  0  0  0  0  0  0  0
  132.5867  134.1457  120.7592 C   0  0  0  0  0  0  0  0  0  0  0  0
  132.5300  134.1940  119.5121 F   0  0  0  0  0  0  0  0  0  0  0  0
  131.0668  130.5733  123.8319 C   0  0  0  0  0  0  0  0  0  0  0  0
  131.8204  132.3767  122.1601 C   0  0  0  0  0  0  0  0  0  0  0  0
  1  2  1  0
  2  3  2  0
  2  4  1  0
  4  5  2  0
  5  6  1  0
  6  7  1  0
  7  8  1  0
  3  9  1  0
  3 10  1  0
  6 10  2  0
M  END
$$$$
