
     RDKit          3D

 10 10  0  0  0  0  0  0  0  0999 V2000
  135.9026  128.0393  116.7725 C   0  0  0  0  0  0  0  0  0  0  0  0
  135.6116  129.1925  117.0857 C   0  0  0  0  0  0  0  0  0  0  0  0
  135.5998  130.0205  118.1424 C   0  0  0  0  0  0  0  0  0  0  0  0
  135.9758  129.4127  119.2950 C   0  0  0  0  0  0  0  0  0  0  0  0
  135.1774  131.4000  118.0776 C   0  0  0  0  0  0  0  0  0  0  0  0
  135.1333  132.1675  119.2359 F   0  0  0  0  0  0  0  0  0  0  0  0
  136.3503  127.3254  117.9157 C   0  0  0  0  0  0  0  0  0  0  0  0
  136.3967  128.0274  119.2622 C   0  0  0  0  0  0  0  0  0  0  0  0
  135.3086  132.3561  117.3990 F   0  0  0  0  0  0  0  0  0  0  0  0
  133.7845  130.9790  117.4801 F   0  0  0  0  0  0  0  0  0  0  0  0
  1  2  2  0
  2  3  1  0
  3  4  2  0
  3  5  1  0
  5  6  1  0
  1  7  1  0
  4  8  1  0
  7  8  2  0
  5  9  1  0
  5 10  1  0
M  END
$$$$
