
     RDKit          3D

 10 11  0  0  0  0  0  0  0  0999 V2000
  136.1981  129.5437  117.5866 C   0  0  0  0  0  0  0  0  0  0  0  0
  136.3854  128.1682  117.5214 C   0  0  0  0  0  0  0  0  0  0  0  0
  135.5114  130.3207  118.5755 C   0  0  0  0  0  0  0  0  0  0  0  0
  134.8764  129.5470  119.5506 C   0  0  0  0  0  0  0  0  0  0  0  0
  135.2544  131.5961  118.4373 O   0  0  0  0  0  0  0  0  0  0  0  0
  134.0269  130.1987  120.5428 C   0  0  0  0  0  0  0  0  0  0  0  0
  135.9426  127.5366  118.5456 C   0  0  0  0  0  0  0  0  0  0  0  0
  135.1952  128.1967  119.6309 C   0  0  0  0  0  0  0  0  0  0  0  0
  133.8299  131.4360  120.4850 O   0  0  0  0  0  0  0  0  0  0  0  0
  134.2821  132.1465  119.3852 C   0  0  0  0  0  0  0  0  0  0  0  0
  1  2  2  0
  1  3  1  0
  3  4  2  0
  3  5  1  0
  4  6  1  0
  2  7  1  0
  4  8  1  0
  7  8  2  0
  6  9  1  0
  5 10  1  0
  9 10  1  0
M  END
$$$$
