
     RDKit          3D

 10 10  0  0  0  0  0  0  0  0999 V2000
  136.3914  127.2705  117.0970 C   0  0  0  0  0  0  0  0  0  0  0  0
  137.5613  127.5059  117.7206 O   0  0  0  0  0  0  0  0  0  0  0  0
  135.9291  128.3684  116.3311 C   0  0  0  0  0  0  0  0  0  0  0  0
  135.0659  129.2388  116.8426 O   0  0  0  0  0  0  0  0  0  0  0  0
  135.6567  129.8238  118.0165 C   0  0  0  0  0  0  0  0  0  0  0  0
  136.9904  129.9898  118.2048 C   0  0  0  0  0  0  0  0  0  0  0  0
  134.6477  130.3833  118.9183 C   0  0  0  0  0  0  0  0  0  0  0  0
  137.6644  128.7770  118.4029 C   0  0  0  0  0  0  0  0  0  0  0  0
  133.6759  131.1827  118.4209 O   0  0  0  0  0  0  0  0  0  0  0  0
  134.7353  129.8595  119.9914 O   0  0  0  0  0  0  0  0  0  0  0  0
  1  2  1  0
  1  3  1  0
  3  4  1  0
  4  5  1  0
  5  6  2  0
  5  7  1  0
  2  8  1  0
  6  8  1  0
  7  9  2  0
  7 10  1  0
M  END
$$$$
