
     RDKit          3D

 10 10  0  0  0  0  0  0  0  0999 V2000
  135.6132  130.9736  118.1529 C   0  0  0  0  0  0  0  0  0  0  0  0
  134.5165  130.4627  118.4787 C   0  0  0  0  0  0  0  0  0  0  0  0
  136.9451  130.3871  118.0993 C   0  0  0  0  0  0  0  0  0  0  0  0
  138.2006  131.0894  117.8253 C   0  0  0  0  0  0  0  0  0  0  0  0
  136.5548  129.0547  118.5950 C   0  0  0  0  0  0  0  0  0  0  0  0
  135.7510  132.5383  117.4239 C   0  0  0  0  0  0  0  0  0  0  0  0
  137.7446  128.1883  118.6319 C   0  0  0  0  0  0  0  0  0  0  0  0
  135.2986  128.7770  119.0784 C   0  0  0  0  0  0  0  0  0  0  0  0
  133.4614  131.5407  118.3895 F   0  0  0  0  0  0  0  0  0  0  0  0
  134.4058  129.3966  118.8732 N   0  0  0  0  0  0  0  0  0  0  0  0
  1  2  1  0
  1  3  2  0
  3  4  1  0
  3  5  1  0
  1  6  1  0
  5  7  1  0
  5  8  2  0
  2  9  1  0
  2 10  2  0
  8 10  1  0
M  END
$$$$
