
     RDKit          3D

 10 10  0  0  0  0  0  0  0  0999 V2000
  136.1746  127.9468  117.0311 C   0  0  0  0  0  0  0  0  0  0  0  0
  135.7857  129.0854  117.4188 O   0  0  0  0  0  0  0  0  0  0  0  0
  137.3673  127.5409  117.7658 C   0  0  0  0  0  0  0  0  0  0  0  0
  136.9742  126.8182  118.9220 F   0  0  0  0  0  0  0  0  0  0  0  0
  135.8260  129.4353  118.6951 C   0  0  0  0  0  0  0  0  0  0  0  0
  137.1923  129.4627  119.0901 C   0  0  0  0  0  0  0  0  0  0  0  0
  134.5798  129.6049  119.2539 C   0  0  0  0  0  0  0  0  0  0  0  0
  137.6076  130.3955  120.0699 O   0  0  0  0  0  0  0  0  0  0  0  0
  137.8929  128.1753  118.7371 C   0  0  0  0  0  0  0  0  0  0  0  0
  134.5285  130.2499  120.5410 C   0  0  0  0  0  0  0  0  0  0  0  0
  1  2  1  0
  1  3  1  0
  3  4  1  0
  2  5  1  0
  5  6  1  0
  5  7  2  3
  6  8  2  0
  3  9  1  0
  6  9  1  0
  7 10  1  0
M  END
$$$$
