
     RDKit          3D

  9  9  0  0  0  0  0  0  0  0999 V2000
  140.3019  150.2145  139.4802 Cl  0  0  0  0  0  0  0  0  0  0  0  0
  138.6758  150.1820  140.5311 C   0  0  0  0  0  0  0  0  0  0  0  0
  137.6364  149.3800  140.0902 C   0  0  0  0  0  0  0  0  0  0  0  0
  139.0293  150.8783  141.6179 C   0  0  0  0  0  0  0  0  0  0  0  0
  138.0425  150.8315  142.6892 C   0  0  0  0  0  0  0  0  0  0  0  0
  136.6397  149.5824  141.0112 C   0  0  0  0  0  0  0  0  0  0  0  0
  135.2749  149.1969  140.6580 C   0  0  0  0  0  0  0  0  0  0  0  0
  136.8781  150.2815  142.2943 C   0  0  0  0  0  0  0  0  0  0  0  0
  138.1789  151.6233  144.0671 Cl  0  0  0  0  0  0  0  0  0  0  0  0
  1  2  1  0
  2  3  2  0
  2  4  1  0
  4  5  2  0
  3  6  1  0
  6  7  1  0
  5  8  1  0
  6  8  2  0
  5  9  1  0
M  END
$$$$

     RDKit          3D

  9  9  0  0  0  0  0  0  0  0999 V2000
  140.3019  150.2145  139.4802 Cl  0  0  0  0  0  0  0  0  0  0  0  0
  138.6758  150.1820  140.5311 C   0  0  0  0  0  0  0  0  0  0  0  0
  137.6364  149.3800  140.0902 C   0  0  0  0  0  0  0  0  0  0  0  0
  139.0293  150.8783  141.6179 C   0  0  0  0  0  0  0  0  0  0  0  0
  138.0425  150.8315  142.6892 C   0  0  0  0  0  0  0  0  0  0  0  0
  136.8327  150.0626  142.4004 C   0  0  0  0  0  0  0  0  0  0  0  0
  137.3699  148.8634  138.9180 C   0  0  0  0  0  0  0  0  0  0  0  0
  136.4042  149.6183  141.2328 C   0  0  0  0  0  0  0  0  0  0  0  0
  138.3113  151.4650  144.1625 Cl  0  0  0  0  0  0  0  0  0  0  0  0
  1  2  1  0
  2  3  2  0
  2  4  1  0
  4  5  2  0
  5  6  1  0
  3  7  1  0
  3  8  1  0
  6  8  2  0
  5  9  1  0
M  END
$$$$

     RDKit          3D

  9  9  0  0  0  0  0  0  0  0999 V2000
  139.2620  151.0921  142.4039 C   0  0  0  0  0  0  0  0  0  0  0  0
  138.8618  152.1315  142.9023 C   0  0  0  0  0  0  0  0  0  0  0  0
  137.9130  151.7995  143.7812 C   0  0  0  0  0  0  0  0  0  0  0  0
  138.8259  150.3979  141.6057 C   0  0  0  0  0  0  0  0  0  0  0  0
  137.6638  149.9538  141.7688 C   0  0  0  0  0  0  0  0  0  0  0  0
  137.5091  152.6033  144.9557 C   0  0  0  0  0  0  0  0  0  0  0  0
  136.8240  149.3530  140.7612 C   0  0  0  0  0  0  0  0  0  0  0  0
  136.2096  152.7677  145.1884 C   0  0  0  0  0  0  0  0  0  0  0  0
  136.9290  150.6968  143.3079 C   0  0  0  0  0  0  0  0  0  0  0  0
  1  2  1  0
  2  3  2  0
  1  4  2  0
  4  5  1  0
  3  6  1  0
  5  7  1  0
  6  8  2  0
  3  9  1  0
  5  9  2  0
M  END
$$$$

     RDKit          3D

  9  9  0  0  0  0  0  0  0  0999 V2000
  138.9697  151.3146  142.5684 C   0  0  0  0  0  0  0  0  0  0  0  0
  138.6018  152.0883  143.2657 C   0  0  0  0  0  0  0  0  0  0  0  0
  137.4864  151.7371  144.1980 C   0  0  0  0  0  0  0  0  0  0  0  0
  137.1833  150.3878  144.2579 C   0  0  0  0  0  0  0  0  0  0  0  0
  138.6180  149.8372  142.4937 C   0  0  0  0  0  0  0  0  0  0  0  0
  136.6465  152.5356  145.1285 C   0  0  0  0  0  0  0  0  0  0  0  0
  136.8882  153.8031  145.2303 C   0  0  0  0  0  0  0  0  0  0  0  0
  137.7696  149.3861  143.4892 C   0  0  0  0  0  0  0  0  0  0  0  0
  135.5377  152.0059  145.6772 C   0  0  0  0  0  0  0  0  0  0  0  0
  1  2  1  0
  2  3  2  0
  3  4  1  0
  1  5  2  0
  3  6  1  0
  6  7  2  0
  4  8  2  0
  5  8  1  0
  6  9  1  0
M  END
$$$$

     RDKit          3D

  9  9  0  0  0  0  0  0  0  0999 V2000
  140.3019  150.2145  139.4802 Cl  0  0  0  0  0  0  0  0  0  0  0  0
  138.6758  150.1820  140.5311 C   0  0  0  0  0  0  0  0  0  0  0  0
  137.6364  149.3800  140.0902 C   0  0  0  0  0  0  0  0  0  0  0  0
  139.2345  150.7148  141.5757 C   0  0  0  0  0  0  0  0  0  0  0  0
  138.3506  151.0464  142.3754 C   0  0  0  0  0  0  0  0  0  0  0  0
  136.9448  150.5062  142.2887 C   0  0  0  0  0  0  0  0  0  0  0  0
  137.3147  148.7680  139.0062 C   0  0  0  0  0  0  0  0  0  0  0  0
  138.4107  151.6509  143.8762 C   0  0  0  0  0  0  0  0  0  0  0  0
  136.5558  149.7883  141.0819 C   0  0  0  0  0  0  0  0  0  0  0  0
  1  2  1  0
  2  3  1  0
  2  4  2  0
  4  5  1  0
  5  6  2  0
  3  7  1  0
  5  8  1  0
  3  9  2  0
  6  9  1  0
M  END
$$$$

     RDKit          3D

  9 10  0  0  0  0  0  0  0  0999 V2000
  138.9697  151.3146  142.5684 C   0  0  0  0  0  0  0  0  0  0  0  0
  138.6018  152.0883  143.2657 C   0  0  0  0  0  0  0  0  0  0  0  0
  139.7627  151.4691  141.3553 C   0  0  0  0  0  0  0  0  0  0  0  0
  137.7629  151.7021  144.3622 C   0  0  0  0  0  0  0  0  0  0  0  0
  137.3916  150.2976  144.2722 C   0  0  0  0  0  0  0  0  0  0  0  0
  139.5884  150.5272  140.3063 C   0  0  0  0  0  0  0  0  0  0  0  0
  138.7536  149.4626  140.7016 C   0  0  0  0  0  0  0  0  0  0  0  0
  138.3560  149.9218  142.3330 C   0  0  0  0  0  0  0  0  0  0  0  0
  137.6569  149.5086  143.2576 N   0  0  0  0  0  0  0  0  0  0  0  0
  1  2  1  0
  1  3  1  0
  2  4  2  0
  4  5  1  0
  3  6  2  0
  6  7  1  0
  1  8  2  0
  7  8  1  0
  5  9  2  0
  8  9  1  0
M  END
$$$$

     RDKit          3D

  9  8  0  0  0  0  0  0  0  0999 V2000
  138.7086  151.1469  142.6266 C   0  0  0  0  0  0  0  0  0  0  0  0
  138.5250  151.9368  143.5112 C   0  0  0  0  0  0  0  0  0  0  0  0
  137.3811  151.6572  144.3961 C   0  0  0  0  0  0  0  0  0  0  0  0
  136.7845  152.7100  145.2487 C   0  0  0  0  0  0  0  0  0  0  0  0
  139.0389  151.5321  141.1684 C   0  0  0  0  0  0  0  0  0  0  0  0
  137.1519  153.9247  145.0446 C   0  0  0  0  0  0  0  0  0  0  0  0
  139.6129  150.5394  140.4341 C   0  0  0  0  0  0  0  0  0  0  0  0
  139.4322  150.4407  138.9873 C   0  0  0  0  0  0  0  0  0  0  0  0
  136.0256  152.3742  145.9931 C   0  0  0  0  0  0  0  0  0  0  0  0
  1  2  1  0
  2  3  2  3
  3  4  1  0
  1  5  1  0
  4  6  1  0
  5  7  1  0
  7  8  1  0
  4  9  2  0
M  END
$$$$

     RDKit          3D

  9  9  0  0  0  0  0  0  0  0999 V2000
  138.9697  151.3146  142.5684 C   0  0  0  0  0  0  0  0  0  0  0  0
  138.6018  152.0883  143.2657 C   0  0  0  0  0  0  0  0  0  0  0  0
  137.6374  151.6902  144.0814 C   0  0  0  0  0  0  0  0  0  0  0  0
  140.0289  151.3257  141.4197 C   0  0  0  0  0  0  0  0  0  0  0  0
  137.1948  150.3123  143.8930 C   0  0  0  0  0  0  0  0  0  0  0  0
  139.8113  150.4471  140.2754 C   0  0  0  0  0  0  0  0  0  0  0  0
  138.3146  149.9305  142.4430 C   0  0  0  0  0  0  0  0  0  0  0  0
  136.9855  152.6060  145.1127 C   0  0  0  0  0  0  0  0  0  0  0  0
  137.5340  149.4521  143.1438 N   0  0  0  0  0  0  0  0  0  0  0  0
  1  2  1  0
  2  3  2  0
  1  4  1  0
  3  5  1  0
  4  6  1  0
  1  7  2  0
  3  8  1  0
  5  9  2  0
  7  9  1  0
M  END
$$$$

     RDKit          3D

  9  9  0  0  0  0  0  0  0  0999 V2000
  138.9697  151.3146  142.5684 C   0  0  0  0  0  0  0  0  0  0  0  0
  138.6018  152.0883  143.2657 C   0  0  0  0  0  0  0  0  0  0  0  0
  137.4864  151.7371  144.1980 C   0  0  0  0  0  0  0  0  0  0  0  0
  139.9864  151.4011  141.4219 C   0  0  0  0  0  0  0  0  0  0  0  0
  137.1565  150.3492  144.0125 C   0  0  0  0  0  0  0  0  0  0  0  0
  139.8246  150.4677  140.3200 C   0  0  0  0  0  0  0  0  0  0  0  0
  138.1718  149.9550  142.5888 C   0  0  0  0  0  0  0  0  0  0  0  0
  140.7398  150.6391  139.1867 C   0  0  0  0  0  0  0  0  0  0  0  0
  136.8239  152.5670  145.0923 C   0  0  0  0  0  0  0  0  0  0  0  0
  1  2  1  0
  2  3  2  0
  1  4  1  0
  3  5  1  0
  4  6  2  3
  1  7  2  0
  5  7  1  0
  6  8  1  0
  3  9  1  0
M  END
$$$$

     RDKit          3D

  9  9  0  0  0  0  0  0  0  0999 V2000
  139.0010  149.7643  140.3643 C   0  0  0  0  0  0  0  0  0  0  0  0
  139.7634  150.8548  140.7362 C   0  0  0  0  0  0  0  0  0  0  0  0
  139.2622  149.1441  139.1764 C   0  0  0  0  0  0  0  0  0  0  0  0
  139.5453  151.5170  142.0076 C   0  0  0  0  0  0  0  0  0  0  0  0
  138.4626  150.9900  142.6963 C   0  0  0  0  0  0  0  0  0  0  0  0
  137.8986  149.5526  141.2289 C   0  0  0  0  0  0  0  0  0  0  0  0
  136.9715  148.5516  140.6009 O   0  0  0  0  0  0  0  0  0  0  0  0
  137.6627  150.0497  142.3493 C   0  0  0  0  0  0  0  0  0  0  0  0
  138.2674  151.7950  144.2434 C   0  0  0  0  0  0  0  0  0  0  0  0
  1  2  2  0
  1  3  1  0
  2  4  1  0
  4  5  2  0
  1  6  1  0
  6  7  1  0
  5  8  1  0
  6  8  2  0
  5  9  1  0
M  END
$$$$

     RDKit          3D

  9  9  0  0  0  0  0  0  0  0999 V2000
  139.2620  151.0921  142.4039 C   0  0  0  0  0  0  0  0  0  0  0  0
  138.8618  152.1315  142.9023 C   0  0  0  0  0  0  0  0  0  0  0  0
  137.7838  151.8936  143.8932 C   0  0  0  0  0  0  0  0  0  0  0  0
  140.0663  150.9640  141.1516 C   0  0  0  0  0  0  0  0  0  0  0  0
  137.3581  150.5082  143.9688 C   0  0  0  0  0  0  0  0  0  0  0  0
  136.3949  150.2409  144.9741 C   0  0  0  0  0  0  0  0  0  0  0  0
  139.5706  150.2304  140.0574 C   0  0  0  0  0  0  0  0  0  0  0  0
  138.0104  149.8873  143.0483 C   0  0  0  0  0  0  0  0  0  0  0  0
  140.3755  150.1016  138.9032 C   0  0  0  0  0  0  0  0  0  0  0  0
  1  2  1  0
  2  3  2  0
  1  4  1  0
  3  5  1  0
  5  6  1  0
  4  7  2  3
  1  8  2  0
  5  8  2  0
  7  9  1  0
M  END
$$$$

     RDKit          3D

  9  9  0  0  0  0  0  0  0  0999 V2000
  140.3019  150.2145  139.4802 Cl  0  0  0  0  0  0  0  0  0  0  0  0
  138.6758  150.1820  140.5311 C   0  0  0  0  0  0  0  0  0  0  0  0
  137.6364  149.3800  140.0902 C   0  0  0  0  0  0  0  0  0  0  0  0
  136.4360  149.4525  140.8154 C   0  0  0  0  0  0  0  0  0  0  0  0
  138.8098  150.8876  141.7036 C   0  0  0  0  0  0  0  0  0  0  0  0
  137.9913  150.9386  142.4952 C   0  0  0  0  0  0  0  0  0  0  0  0
  135.1919  149.1119  140.4183 C   0  0  0  0  0  0  0  0  0  0  0  0
  136.6025  150.2564  142.0706 C   0  0  0  0  0  0  0  0  0  0  0  0
  137.8501  151.7026  143.9590 C   0  0  0  0  0  0  0  0  0  0  0  0
  1  2  1  0
  2  3  2  0
  3  4  1  0
  2  5  1  0
  5  6  2  0
  4  7  1  0
  4  8  2  0
  6  8  1  0
  6  9  1  0
M  END
$$$$

     RDKit          3D

  9  9  0  0  0  0  0  0  0  0999 V2000
  139.2620  151.0921  142.4039 C   0  0  0  0  0  0  0  0  0  0  0  0
  138.8618  152.1315  142.9023 C   0  0  0  0  0  0  0  0  0  0  0  0
  137.9130  151.7995  143.7812 C   0  0  0  0  0  0  0  0  0  0  0  0
  138.8259  150.3979  141.6057 C   0  0  0  0  0  0  0  0  0  0  0  0
  137.2796  150.5149  143.6575 C   0  0  0  0  0  0  0  0  0  0  0  0
  139.3577  149.8119  140.3456 C   0  0  0  0  0  0  0  0  0  0  0  0
  140.5249  149.7135  139.9598 O   0  0  0  0  0  0  0  0  0  0  0  0
  138.4215  149.5143  139.4581 O   0  0  0  0  0  0  0  0  0  0  0  0
  137.5719  149.7299  142.2331 C   0  0  0  0  0  0  0  0  0  0  0  0
  1  2  1  0
  2  3  2  0
  1  4  2  0
  3  5  1  0
  4  6  1  0
  6  7  1  0
  6  8  2  0
  4  9  1  0
  5  9  2  0
M  END
$$$$

     RDKit          3D

  9  9  0  0  0  0  0  0  0  0999 V2000
  138.9697  151.3146  142.5684 C   0  0  0  0  0  0  0  0  0  0  0  0
  138.6018  152.0883  143.2657 C   0  0  0  0  0  0  0  0  0  0  0  0
  137.4864  151.7371  144.1980 C   0  0  0  0  0  0  0  0  0  0  0  0
  139.9864  151.4011  141.4219 C   0  0  0  0  0  0  0  0  0  0  0  0
  138.3662  149.9208  142.4643 C   0  0  0  0  0  0  0  0  0  0  0  0
  137.0554  150.4385  144.0798 C   0  0  0  0  0  0  0  0  0  0  0  0
  137.4837  149.4758  143.2809 C   0  0  0  0  0  0  0  0  0  0  0  0
  139.7342  150.8738  140.2468 C   0  0  0  0  0  0  0  0  0  0  0  0
  136.8608  152.7888  145.2666 C   0  0  0  0  0  0  0  0  0  0  0  0
  1  2  1  0
  2  3  2  0
  1  4  1  0
  1  5  2  0
  3  6  1  0
  5  7  1  0
  6  7  2  0
  4  8  1  0
  3  9  1  0
M  END
$$$$

     RDKit          3D

  9  9  0  0  0  0  0  0  0  0999 V2000
  138.7240  151.5758  143.3184 C   0  0  0  0  0  0  0  0  0  0  0  0
  137.9193  152.3258  143.7536 C   0  0  0  0  0  0  0  0  0  0  0  0
  136.7526  151.8075  144.4391 C   0  0  0  0  0  0  0  0  0  0  0  0
  136.7825  150.4607  144.6808 C   0  0  0  0  0  0  0  0  0  0  0  0
  135.7199  152.5055  144.9802 C   0  0  0  0  0  0  0  0  0  0  0  0
  138.4936  150.1678  143.2328 C   0  0  0  0  0  0  0  0  0  0  0  0
  139.3554  149.2644  142.5214 C   0  0  0  0  0  0  0  0  0  0  0  0
  137.6979  149.6075  143.9872 N   0  0  0  0  0  0  0  0  0  0  0  0
  134.5794  152.0427  145.7472 C   0  0  0  0  0  0  0  0  0  0  0  0
  1  2  1  0
  2  3  2  0
  3  4  1  0
  3  5  1  0
  1  6  2  0
  6  7  1  0
  4  8  2  0
  6  8  1  0
  5  9  1  0
M  END
$$$$

     RDKit          3D

  9  9  0  0  0  0  0  0  0  0999 V2000
  138.9697  151.3146  142.5684 C   0  0  0  0  0  0  0  0  0  0  0  0
  138.6018  152.0883  143.2657 C   0  0  0  0  0  0  0  0  0  0  0  0
  139.7627  151.4691  141.3553 C   0  0  0  0  0  0  0  0  0  0  0  0
  137.5394  151.8374  144.3779 C   0  0  0  0  0  0  0  0  0  0  0  0
  137.4014  150.5805  144.6885 C   0  0  0  0  0  0  0  0  0  0  0  0
  139.6225  150.4855  140.3438 C   0  0  0  0  0  0  0  0  0  0  0  0
  138.7453  149.4536  140.7011 C   0  0  0  0  0  0  0  0  0  0  0  0
  138.2807  149.9503  142.3754 C   0  0  0  0  0  0  0  0  0  0  0  0
  136.8703  152.8764  145.0809 C   0  0  0  0  0  0  0  0  0  0  0  0
  1  2  1  0
  1  3  1  0
  2  4  1  0
  4  5  2  0
  3  6  2  0
  6  7  1  0
  1  8  2  0
  7  8  1  0
  4  9  1  0
M  END
$$$$

     RDKit          3D

  9  9  0  0  0  0  0  0  0  0999 V2000
  138.9697  151.3146  142.5684 C   0  0  0  0  0  0  0  0  0  0  0  0
  138.6018  152.0883  143.2657 C   0  0  0  0  0  0  0  0  0  0  0  0
  137.4864  151.7371  144.1980 C   0  0  0  0  0  0  0  0  0  0  0  0
  139.9864  151.4011  141.4219 C   0  0  0  0  0  0  0  0  0  0  0  0
  136.7358  152.5376  145.0264 C   0  0  0  0  0  0  0  0  0  0  0  0
  139.7034  150.7343  140.1991 C   0  0  0  0  0  0  0  0  0  0  0  0
  138.6320  149.7541  140.4220 C   0  0  0  0  0  0  0  0  0  0  0  0
  138.1706  150.0879  142.1973 C   0  0  0  0  0  0  0  0  0  0  0  0
  135.5389  152.1084  145.5615 C   0  0  0  0  0  0  0  0  0  0  0  0
  1  2  1  0
  2  3  2  3
  1  4  1  0
  3  5  1  0
  4  6  2  0
  6  7  1  0
  1  8  2  0
  7  8  1  0
  5  9  2  0
M  END
$$$$

     RDKit          3D

  9  9  0  0  0  0  0  0  0  0999 V2000
  139.0010  149.7643  140.3643 C   0  0  0  0  0  0  0  0  0  0  0  0
  138.7144  149.5449  139.1247 C   0  0  0  0  0  0  0  0  0  0  0  0
  138.1840  150.1020  141.2852 C   0  0  0  0  0  0  0  0  0  0  0  0
  137.3200  149.5871  138.6815 C   0  0  0  0  0  0  0  0  0  0  0  0
  136.9839  149.1440  137.4603 O   0  0  0  0  0  0  0  0  0  0  0  0
  136.3909  149.6039  139.4103 C   0  0  0  0  0  0  0  0  0  0  0  0
  135.0490  149.6395  139.3369 O   0  0  0  0  0  0  0  0  0  0  0  0
  136.6953  150.0028  140.9975 C   0  0  0  0  0  0  0  0  0  0  0  0
  138.4597  150.7132  142.7631 C   0  0  0  0  0  0  0  0  0  0  0  0
  1  2  2  0
  1  3  1  0
  2  4  1  0
  4  5  1  0
  4  6  2  0
  6  7  1  0
  3  8  2  0
  6  8  1  0
  3  9  1  0
M  END
$$$$

     RDKit          3D

  9  9  0  0  0  0  0  0  0  0999 V2000
  139.0010  149.7643  140.3643 C   0  0  0  0  0  0  0  0  0  0  0  0
  139.7634  150.8548  140.7362 C   0  0  0  0  0  0  0  0  0  0  0  0
  139.2622  149.1441  139.1764 C   0  0  0  0  0  0  0  0  0  0  0  0
  139.5453  151.5170  142.0076 C   0  0  0  0  0  0  0  0  0  0  0  0
  138.5845  150.8186  142.8528 C   0  0  0  0  0  0  0  0  0  0  0  0
  137.9507  149.4751  141.2608 C   0  0  0  0  0  0  0  0  0  0  0  0
  136.9955  148.5390  140.6550 C   0  0  0  0  0  0  0  0  0  0  0  0
  138.5020  151.4293  144.2946 C   0  0  0  0  0  0  0  0  0  0  0  0
  137.7120  149.9337  142.4778 C   0  0  0  0  0  0  0  0  0  0  0  0
  1  2  2  0
  1  3  1  0
  2  4  1  0
  4  5  2  0
  1  6  1  0
  6  7  1  0
  5  8  1  0
  5  9  1  0
  6  9  2  0
M  END
$$$$

     RDKit          3D

  9  9  0  0  0  0  0  0  0  0999 V2000
  139.0010  149.7643  140.3643 C   0  0  0  0  0  0  0  0  0  0  0  0
  138.7144  149.5449  139.1247 C   0  0  0  0  0  0  0  0  0  0  0  0
  138.1840  150.1020  141.2852 C   0  0  0  0  0  0  0  0  0  0  0  0
  139.6385  149.1413  138.0959 C   0  0  0  0  0  0  0  0  0  0  0  0
  136.6881  150.0305  141.1796 C   0  0  0  0  0  0  0  0  0  0  0  0
  135.7984  150.1278  142.2481 C   0  0  0  0  0  0  0  0  0  0  0  0
  136.4758  150.9552  143.1765 C   0  0  0  0  0  0  0  0  0  0  0  0
  138.3984  150.6730  142.6212 C   0  0  0  0  0  0  0  0  0  0  0  0
  137.6809  151.0415  143.5345 C   0  0  0  0  0  0  0  0  0  0  0  0
  1  2  2  3
  1  3  1  0
  2  4  1  0
  3  5  2  0
  5  6  1  0
  6  7  2  0
  3  8  1  0
  7  9  1  0
  8  9  2  0
M  END
$$$$

     RDKit          3D

  9  9  0  0  0  0  0  0  0  0999 V2000
  138.7240  151.5758  143.3184 C   0  0  0  0  0  0  0  0  0  0  0  0
  137.9193  152.3258  143.7536 C   0  0  0  0  0  0  0  0  0  0  0  0
  136.7526  151.8075  144.4391 C   0  0  0  0  0  0  0  0  0  0  0  0
  136.7825  150.4607  144.6808 C   0  0  0  0  0  0  0  0  0  0  0  0
  135.7199  152.5055  144.9802 C   0  0  0  0  0  0  0  0  0  0  0  0
  138.4936  150.1678  143.2328 C   0  0  0  0  0  0  0  0  0  0  0  0
  139.3554  149.2644  142.5214 C   0  0  0  0  0  0  0  0  0  0  0  0
  137.5368  149.5237  144.0285 C   0  0  0  0  0  0  0  0  0  0  0  0
  134.6617  152.0690  145.8063 C   0  0  0  0  0  0  0  0  0  0  0  0
  1  2  1  0
  2  3  2  0
  3  4  1  0
  3  5  1  0
  1  6  2  0
  6  7  1  0
  4  8  2  0
  6  8  1  0
  5  9  1  0
M  END
$$$$

     RDKit          3D

  9  9  0  0  0  0  0  0  0  0999 V2000
  139.0010  149.7643  140.3643 C   0  0  0  0  0  0  0  0  0  0  0  0
  139.7634  150.8548  140.7362 C   0  0  0  0  0  0  0  0  0  0  0  0
  139.2622  149.1441  139.1764 C   0  0  0  0  0  0  0  0  0  0  0  0
  139.5453  151.5170  142.0076 C   0  0  0  0  0  0  0  0  0  0  0  0
  138.4626  150.9900  142.6963 C   0  0  0  0  0  0  0  0  0  0  0  0
  137.8986  149.5526  141.2289 C   0  0  0  0  0  0  0  0  0  0  0  0
  136.9715  148.5516  140.6009 O   0  0  0  0  0  0  0  0  0  0  0  0
  137.6715  150.0994  142.3597 C   0  0  0  0  0  0  0  0  0  0  0  0
  138.2361  151.7835  144.3919 Cl  0  0  0  0  0  0  0  0  0  0  0  0
  1  2  2  0
  1  3  1  0
  2  4  1  0
  4  5  2  0
  1  6  1  0
  6  7  1  0
  5  8  1  0
  6  8  2  0
  5  9  1  0
M  END
$$$$

     RDKit          3D

  9 10  0  0  0  0  0  0  0  0999 V2000
  138.9697  151.3146  142.5684 C   0  0  0  0  0  0  0  0  0  0  0  0
  138.6018  152.0883  143.2657 C   0  0  0  0  0  0  0  0  0  0  0  0
  139.7627  151.4691  141.3553 C   0  0  0  0  0  0  0  0  0  0  0  0
  137.5394  151.8374  144.3779 C   0  0  0  0  0  0  0  0  0  0  0  0
  137.4014  150.5805  144.6885 C   0  0  0  0  0  0  0  0  0  0  0  0
  139.6225  150.4855  140.3438 C   0  0  0  0  0  0  0  0  0  0  0  0
  138.7453  149.4536  140.7011 C   0  0  0  0  0  0  0  0  0  0  0  0
  138.2807  149.9503  142.3754 C   0  0  0  0  0  0  0  0  0  0  0  0
  137.6303  149.4425  143.4977 C   0  0  0  0  0  0  0  0  0  0  0  0
  1  2  1  0
  1  3  1  0
  2  4  1  0
  4  5  2  0
  3  6  2  0
  6  7  1  0
  1  8  2  0
  7  8  1  0
  5  9  1  0
  8  9  1  0
M  END
$$$$

     RDKit          3D

  9 10  0  0  0  0  0  0  0  0999 V2000
  138.9697  151.3146  142.5684 C   0  0  0  0  0  0  0  0  0  0  0  0
  138.6018  152.0883  143.2657 C   0  0  0  0  0  0  0  0  0  0  0  0
  139.7627  151.4691  141.3553 C   0  0  0  0  0  0  0  0  0  0  0  0
  137.7629  151.7021  144.3622 C   0  0  0  0  0  0  0  0  0  0  0  0
  137.3916  150.2976  144.2722 C   0  0  0  0  0  0  0  0  0  0  0  0
  139.5884  150.5272  140.3063 C   0  0  0  0  0  0  0  0  0  0  0  0
  138.7536  149.4626  140.7016 C   0  0  0  0  0  0  0  0  0  0  0  0
  138.3560  149.9218  142.3330 C   0  0  0  0  0  0  0  0  0  0  0  0
  137.6569  149.5086  143.2576 C   0  0  0  0  0  0  0  0  0  0  0  0
  1  2  1  0
  1  3  1  0
  2  4  2  0
  4  5  1  0
  3  6  2  0
  6  7  1  0
  1  8  2  0
  7  8  1  0
  5  9  2  0
  8  9  1  0
M  END
$$$$

     RDKit          3D

  9  9  0  0  0  0  0  0  0  0999 V2000
  139.2620  151.0921  142.4039 C   0  0  0  0  0  0  0  0  0  0  0  0
  138.8618  152.1315  142.9023 C   0  0  0  0  0  0  0  0  0  0  0  0
  137.7838  151.8936  143.8932 C   0  0  0  0  0  0  0  0  0  0  0  0
  137.3596  150.5423  144.0627 C   0  0  0  0  0  0  0  0  0  0  0  0
  136.3232  150.4823  145.1226 C   0  0  0  0  0  0  0  0  0  0  0  0
  139.4748  150.9226  141.2198 C   0  0  0  0  0  0  0  0  0  0  0  0
  135.8799  151.6090  145.5505 C   0  0  0  0  0  0  0  0  0  0  0  0
  137.1945  152.7449  144.6426 C   0  0  0  0  0  0  0  0  0  0  0  0
  136.2472  152.7364  145.5037 C   0  0  0  0  0  0  0  0  0  0  0  0
  1  2  1  0
  2  3  2  3
  3  4  1  0
  4  5  2  0
  1  6  2  0
  5  7  1  0
  3  8  1  0
  7  9  2  0
  8  9  1  0
M  END
$$$$

     RDKit          3D

  9  9  0  0  0  0  0  0  0  0999 V2000
  138.7240  151.5758  143.3184 C   0  0  0  0  0  0  0  0  0  0  0  0
  137.9193  152.3258  143.7536 C   0  0  0  0  0  0  0  0  0  0  0  0
  136.7526  151.8075  144.4391 C   0  0  0  0  0  0  0  0  0  0  0  0
  136.7825  150.4607  144.6808 C   0  0  0  0  0  0  0  0  0  0  0  0
  138.6208  150.0966  143.3694 C   0  0  0  0  0  0  0  0  0  0  0  0
  135.5447  152.3891  145.0626 C   0  0  0  0  0  0  0  0  0  0  0  0
  135.3318  153.4939  145.3373 C   0  0  0  0  0  0  0  0  0  0  0  0
  139.5806  149.2466  142.8001 C   0  0  0  0  0  0  0  0  0  0  0  0
  137.5819  149.5573  144.1606 C   0  0  0  0  0  0  0  0  0  0  0  0
  1  2  1  0
  2  3  2  0
  3  4  1  0
  1  5  2  0
  3  6  1  0
  6  7  2  0
  5  8  1  0
  4  9  2  0
  5  9  1  0
M  END
$$$$

     RDKit          3D

  9  9  0  0  0  0  0  0  0  0999 V2000
  140.3019  150.2145  139.4802 Cl  0  0  0  0  0  0  0  0  0  0  0  0
  138.6758  150.1820  140.5311 C   0  0  0  0  0  0  0  0  0  0  0  0
  137.6364  149.3800  140.0902 C   0  0  0  0  0  0  0  0  0  0  0  0
  138.8645  150.7144  141.4528 C   0  0  0  0  0  0  0  0  0  0  0  0
  136.5623  149.5846  140.7692 C   0  0  0  0  0  0  0  0  0  0  0  0
  136.4105  150.3672  141.9090 C   0  0  0  0  0  0  0  0  0  0  0  0
  135.2467  150.5950  142.7376 C   0  0  0  0  0  0  0  0  0  0  0  0
  137.6984  150.9814  142.3509 C   0  0  0  0  0  0  0  0  0  0  0  0
  137.8527  151.6996  143.7037 C   0  0  0  0  0  0  0  0  0  0  0  0
  1  2  1  0
  2  3  2  0
  2  4  1  0
  3  5  1  0
  5  6  2  0
  6  7  1  0
  4  8  2  0
  6  8  1  0
  8  9  1  0
M  END
$$$$

     RDKit          3D

  9  9  0  0  0  0  0  0  0  0999 V2000
  138.7240  151.5758  143.3184 C   0  0  0  0  0  0  0  0  0  0  0  0
  137.9193  152.3258  143.7536 C   0  0  0  0  0  0  0  0  0  0  0  0
  136.7526  151.8075  144.4391 C   0  0  0  0  0  0  0  0  0  0  0  0
  138.5730  150.7616  142.3607 C   0  0  0  0  0  0  0  0  0  0  0  0
  136.5022  150.5129  144.1734 C   0  0  0  0  0  0  0  0  0  0  0  0
  139.5484  150.5136  141.3201 C   0  0  0  0  0  0  0  0  0  0  0  0
  139.1209  150.0566  140.1186 C   0  0  0  0  0  0  0  0  0  0  0  0
  137.3220  149.9219  142.5108 C   0  0  0  0  0  0  0  0  0  0  0  0
  135.8698  152.4821  145.4429 C   0  0  0  0  0  0  0  0  0  0  0  0
  1  2  1  0
  2  3  2  0
  1  4  2  0
  3  5  1  0
  4  6  1  0
  6  7  1  0
  4  8  1  0
  5  8  1  0
  3  9  1  0
M  END
$$$$

     RDKit          3D

  9  9  0  0  0  0  0  0  0  0999 V2000
  138.9697  151.3146  142.5684 C   0  0  0  0  0  0  0  0  0  0  0  0
  138.6018  152.0883  143.2657 C   0  0  0  0  0  0  0  0  0  0  0  0
  137.5210  151.7905  144.2146 C   0  0  0  0  0  0  0  0  0  0  0  0
  139.9450  151.4362  141.4348 C   0  0  0  0  0  0  0  0  0  0  0  0
  137.4509  150.5150  144.7895 C   0  0  0  0  0  0  0  0  0  0  0  0
  139.6483  150.6881  140.3006 C   0  0  0  0  0  0  0  0  0  0  0  0
  138.5290  149.9149  140.3372 C   0  0  0  0  0  0  0  0  0  0  0  0
  136.5956  152.7971  144.5635 C   0  0  0  0  0  0  0  0  0  0  0  0
  138.2995  150.0192  142.2365 C   0  0  0  0  0  0  0  0  0  0  0  0
  1  2  2  3
  2  3  1  0
  1  4  1  0
  3  5  2  0
  4  6  2  0
  6  7  1  0
  3  8  1  0
  1  9  1  0
  7  9  2  0
M  END
$$$$

     RDKit          3D

  9  9  0  0  0  0  0  0  0  0999 V2000
  138.7240  151.5758  143.3184 C   0  0  0  0  0  0  0  0  0  0  0  0
  137.9193  152.3258  143.7536 C   0  0  0  0  0  0  0  0  0  0  0  0
  136.7526  151.8075  144.4391 C   0  0  0  0  0  0  0  0  0  0  0  0
  136.7825  150.4607  144.6808 C   0  0  0  0  0  0  0  0  0  0  0  0
  135.8633  152.6144  145.2382 C   0  0  0  0  0  0  0  0  0  0  0  0
  138.4720  150.1666  143.2072 C   0  0  0  0  0  0  0  0  0  0  0  0
  135.8308  149.8987  145.6533 C   0  0  0  0  0  0  0  0  0  0  0  0
  137.6319  149.5471  144.0559 C   0  0  0  0  0  0  0  0  0  0  0  0
  135.9738  153.9658  145.2045 C   0  0  0  0  0  0  0  0  0  0  0  0
  1  2  1  0
  2  3  2  0
  3  4  1  0
  3  5  1  0
  1  6  2  0
  4  7  1  0
  4  8  2  0
  6  8  1  0
  5  9  2  0
M  END
$$$$

     RDKit          3D

  9  9  0  0  0  0  0  0  0  0999 V2000
  138.7086  151.1469  142.6266 C   0  0  0  0  0  0  0  0  0  0  0  0
  138.5250  151.9368  143.5112 C   0  0  0  0  0  0  0  0  0  0  0  0
  137.4739  151.6724  144.4643 C   0  0  0  0  0  0  0  0  0  0  0  0
  138.0107  149.8673  142.4719 C   0  0  0  0  0  0  0  0  0  0  0  0
  136.7203  150.4807  144.2961 C   0  0  0  0  0  0  0  0  0  0  0  0
  136.9968  149.5741  143.3579 C   0  0  0  0  0  0  0  0  0  0  0  0
  137.1279  152.6436  145.4919 C   0  0  0  0  0  0  0  0  0  0  0  0
  135.7748  152.6691  145.9460 C   0  0  0  0  0  0  0  0  0  0  0  0
  134.9268  151.7983  145.8451 C   0  0  0  0  0  0  0  0  0  0  0  0
  1  2  2  0
  2  3  1  0
  1  4  1  0
  3  5  2  0
  4  6  2  0
  5  6  1  0
  3  7  1  0
  7  8  1  0
  8  9  2  0
M  END
$$$$

     RDKit          3D

  9  9  0  0  0  0  0  0  0  0999 V2000
  139.0010  149.7643  140.3643 C   0  0  0  0  0  0  0  0  0  0  0  0
  138.7144  149.5449  139.1247 C   0  0  0  0  0  0  0  0  0  0  0  0
  138.1840  150.1020  141.2852 C   0  0  0  0  0  0  0  0  0  0  0  0
  137.3200  149.5871  138.6815 C   0  0  0  0  0  0  0  0  0  0  0  0
  136.9839  149.1440  137.4603 O   0  0  0  0  0  0  0  0  0  0  0  0
  136.4841  149.5990  139.7326 C   0  0  0  0  0  0  0  0  0  0  0  0
  135.0199  149.6449  139.5836 O   0  0  0  0  0  0  0  0  0  0  0  0
  136.8302  149.9842  141.1060 C   0  0  0  0  0  0  0  0  0  0  0  0
  138.6627  150.7487  142.8187 Cl  0  0  0  0  0  0  0  0  0  0  0  0
  1  2  2  0
  1  3  1  0
  2  4  1  0
  4  5  1  0
  4  6  2  0
  6  7  1  0
  3  8  2  0
  6  8  1  0
  3  9  1  0
M  END
$$$$

     RDKit          3D

  9  9  0  0  0  0  0  0  0  0999 V2000
  138.7086  151.1469  142.6266 C   0  0  0  0  0  0  0  0  0  0  0  0
  138.5250  151.9368  143.5112 C   0  0  0  0  0  0  0  0  0  0  0  0
  137.3905  151.8077  144.0741 C   0  0  0  0  0  0  0  0  0  0  0  0
  136.5952  150.6189  143.9723 C   0  0  0  0  0  0  0  0  0  0  0  0
  137.9808  149.9629  142.2545 C   0  0  0  0  0  0  0  0  0  0  0  0
  135.4269  150.3965  144.8060 C   0  0  0  0  0  0  0  0  0  0  0  0
  136.8815  149.7122  143.0096 C   0  0  0  0  0  0  0  0  0  0  0  0
  140.0349  151.2683  141.7254 O   0  0  0  0  0  0  0  0  0  0  0  0
  139.9016  150.5249  140.5014 C   0  0  0  0  0  0  0  0  0  0  0  0
  1  2  1  0
  2  3  2  0
  3  4  1  0
  1  5  2  0
  4  6  1  0
  4  7  2  0
  5  7  1  0
  1  8  1  0
  8  9  1  0
M  END
$$$$

     RDKit          3D

  9  9  0  0  0  0  0  0  0  0999 V2000
  138.7240  151.5758  143.3184 C   0  0  0  0  0  0  0  0  0  0  0  0
  137.9193  152.3258  143.7536 C   0  0  0  0  0  0  0  0  0  0  0  0
  136.7526  151.8075  144.4391 C   0  0  0  0  0  0  0  0  0  0  0  0
  138.5730  150.7616  142.3607 C   0  0  0  0  0  0  0  0  0  0  0  0
  136.5022  150.5129  144.1734 C   0  0  0  0  0  0  0  0  0  0  0  0
  137.6911  149.6643  142.4369 C   0  0  0  0  0  0  0  0  0  0  0  0
  136.7945  149.5841  143.2331 C   0  0  0  0  0  0  0  0  0  0  0  0
  135.9638  152.7220  145.2840 C   0  0  0  0  0  0  0  0  0  0  0  0
  139.6543  150.6364  141.1939 C   0  0  0  0  0  0  0  0  0  0  0  0
  1  2  1  0
  2  3  2  0
  1  4  2  0
  3  5  1  0
  4  6  1  0
  5  7  1  0
  6  7  1  0
  3  8  1  0
  4  9  1  0
M  END
$$$$

     RDKit          3D

  9  9  0  0  0  0  0  0  0  0999 V2000
  139.3428  149.9936  140.5898 C   0  0  0  0  0  0  0  0  0  0  0  0
  138.9752  149.9369  139.3605 C   0  0  0  0  0  0  0  0  0  0  0  0
  138.5862  150.0774  141.6376 C   0  0  0  0  0  0  0  0  0  0  0  0
  137.2156  149.9043  141.8335 C   0  0  0  0  0  0  0  0  0  0  0  0
  136.5021  149.8247  140.5813 C   0  0  0  0  0  0  0  0  0  0  0  0
  139.1623  150.4261  143.1243 C   0  0  0  0  0  0  0  0  0  0  0  0
  138.2139  150.9754  144.0752 C   0  0  0  0  0  0  0  0  0  0  0  0
  135.0949  149.7489  140.3557 C   0  0  0  0  0  0  0  0  0  0  0  0
  137.4608  149.7316  139.1279 C   0  0  0  0  0  0  0  0  0  0  0  0
  1  2  2  0
  1  3  1  0
  3  4  1  0
  4  5  2  0
  3  6  1  0
  6  7  1  0
  5  8  1  0
  2  9  1  0
  5  9  1  0
M  END
$$$$

     RDKit          3D

  9  9  0  0  0  0  0  0  0  0999 V2000
  138.7240  151.5758  143.3184 C   0  0  0  0  0  0  0  0  0  0  0  0
  137.9193  152.3258  143.7536 C   0  0  0  0  0  0  0  0  0  0  0  0
  136.7526  151.8075  144.4391 C   0  0  0  0  0  0  0  0  0  0  0  0
  138.5730  150.7616  142.3607 C   0  0  0  0  0  0  0  0  0  0  0  0
  136.5022  150.5129  144.1734 C   0  0  0  0  0  0  0  0  0  0  0  0
  137.6911  149.6643  142.4369 C   0  0  0  0  0  0  0  0  0  0  0  0
  136.7068  149.5816  143.2485 C   0  0  0  0  0  0  0  0  0  0  0  0
  135.8933  152.7059  145.5064 C   0  0  0  0  0  0  0  0  0  0  0  0
  139.7346  150.4889  141.1975 C   0  0  0  0  0  0  0  0  0  0  0  0
  1  2  1  0
  2  3  2  0
  1  4  2  0
  3  5  1  0
  4  6  1  0
  5  7  2  0
  6  7  2  0
  3  8  1  0
  4  9  1  0
M  END
$$$$

     RDKit          3D

 10 10  0  0  0  0  0  0  0  0999 V2000
  140.3019  150.2145  139.4802 Cl  0  0  0  0  0  0  0  0  0  0  0  0
  138.6758  150.1820  140.5311 C   0  0  0  0  0  0  0  0  0  0  0  0
  137.6364  149.3800  140.0902 C   0  0  0  0  0  0  0  0  0  0  0  0
  139.2345  150.7148  141.5757 C   0  0  0  0  0  0  0  0  0  0  0  0
  138.3506  151.0464  142.3754 C   0  0  0  0  0  0  0  0  0  0  0  0
  136.6679  149.8087  140.9324 C   0  0  0  0  0  0  0  0  0  0  0  0
  138.6250  151.7679  143.7112 C   0  0  0  0  0  0  0  0  0  0  0  0
  135.2414  149.4762  140.7472 C   0  0  0  0  0  0  0  0  0  0  0  0
  137.5911  151.8691  144.5285 C   0  0  0  0  0  0  0  0  0  0  0  0
  136.9431  150.6087  142.1354 C   0  0  0  0  0  0  0  0  0  0  0  0
  1  2  1  0
  2  3  1  0
  2  4  2  0
  4  5  1  0
  3  6  2  0
  5  7  1  0
  6  8  1  0
  7  9  2  0
  5 10  2  0
  6 10  1  0
M  END
$$$$

     RDKit          3D

 10  9  0  0  0  0  0  0  0  0999 V2000
  140.3019  150.2145  139.4802 Cl  0  0  0  0  0  0  0  0  0  0  0  0
  138.6758  150.1820  140.5311 C   0  0  0  0  0  0  0  0  0  0  0  0
  137.6364  149.3800  140.0902 C   0  0  0  0  0  0  0  0  0  0  0  0
  137.5436  148.9622  138.7410 C   0  0  0  0  0  0  0  0  0  0  0  0
  138.4827  150.4324  141.7166 C   0  0  0  0  0  0  0  0  0  0  0  0
  137.4066  150.4218  142.5539 C   0  0  0  0  0  0  0  0  0  0  0  0
  137.3042  150.9828  143.8954 C   0  0  0  0  0  0  0  0  0  0  0  0
  136.3213  150.9809  144.7172 C   0  0  0  0  0  0  0  0  0  0  0  0
  135.9991  152.2180  145.4552 C   0  0  0  0  0  0  0  0  0  0  0  0
  134.7831  152.3761  146.1246 C   0  0  0  0  0  0  0  0  0  0  0  0
  1  2  1  0
  2  3  2  3
  3  4  1  0
  2  5  1  0
  5  6  2  3
  6  7  1  0
  7  8  1  0
  8  9  1  0
  9 10  1  0
M  END
$$$$

     RDKit          3D

 10 10  0  0  0  0  0  0  0  0999 V2000
  138.9697  151.3146  142.5684 C   0  0  0  0  0  0  0  0  0  0  0  0
  138.6018  152.0883  143.2657 C   0  0  0  0  0  0  0  0  0  0  0  0
  137.4864  151.7371  144.1980 C   0  0  0  0  0  0  0  0  0  0  0  0
  139.9864  151.4011  141.4219 C   0  0  0  0  0  0  0  0  0  0  0  0
  136.7358  152.5376  145.0264 C   0  0  0  0  0  0  0  0  0  0  0  0
  139.7034  150.7343  140.1991 C   0  0  0  0  0  0  0  0  0  0  0  0
  138.6320  149.7541  140.4220 C   0  0  0  0  0  0  0  0  0  0  0  0
  138.1706  150.0879  142.1973 C   0  0  0  0  0  0  0  0  0  0  0  0
  137.0248  153.8656  145.1856 O   0  0  0  0  0  0  0  0  0  0  0  0
  135.6942  151.9031  145.6289 C   0  0  0  0  0  0  0  0  0  0  0  0
  1  2  1  0
  2  3  2  3
  1  4  1  0
  3  5  1  0
  4  6  2  0
  6  7  1  0
  1  8  2  0
  7  8  1  0
  5  9  2  0
  5 10  1  0
M  END
$$$$

     RDKit          3D

 10 11  0  0  0  0  0  0  0  0999 V2000
  138.9697  151.3146  142.5684 C   0  0  0  0  0  0  0  0  0  0  0  0
  138.6018  152.0883  143.2657 C   0  0  0  0  0  0  0  0  0  0  0  0
  137.6687  151.8115  144.0583 C   0  0  0  0  0  0  0  0  0  0  0  0
  137.4111  150.3597  144.4812 C   0  0  0  0  0  0  0  0  0  0  0  0
  136.7342  152.6392  144.8895 C   0  0  0  0  0  0  0  0  0  0  0  0
  138.6202  149.8844  142.6454 C   0  0  0  0  0  0  0  0  0  0  0  0
  135.4452  152.2536  145.2446 C   0  0  0  0  0  0  0  0  0  0  0  0
  136.5030  150.0748  145.5485 C   0  0  0  0  0  0  0  0  0  0  0  0
  137.9863  149.4334  143.7922 C   0  0  0  0  0  0  0  0  0  0  0  0
  135.4963  151.2234  146.0541 C   0  0  0  0  0  0  0  0  0  0  0  0
  1  2  2  0
  2  3  1  0
  3  4  2  0
  3  5  1  0
  1  6  1  0
  5  7  2  0
  4  8  1  0
  4  9  1  0
  6  9  2  0
  7 10  1  0
  8 10  2  0
M  END
$$$$

     RDKit          3D

 10 11  0  0  0  0  0  0  0  0999 V2000
  139.2620  151.0921  142.4039 C   0  0  0  0  0  0  0  0  0  0  0  0
  138.8618  152.1315  142.9023 C   0  0  0  0  0  0  0  0  0  0  0  0
  137.9130  151.7995  143.7812 C   0  0  0  0  0  0  0  0  0  0  0  0
  138.8259  150.3979  141.6057 C   0  0  0  0  0  0  0  0  0  0  0  0
  137.6638  149.9538  141.7688 C   0  0  0  0  0  0  0  0  0  0  0  0
  137.5091  152.6033  144.9557 C   0  0  0  0  0  0  0  0  0  0  0  0
  136.7930  150.5043  142.9032 C   0  0  0  0  0  0  0  0  0  0  0  0
  136.8867  151.2180  143.8061 C   0  0  0  0  0  0  0  0  0  0  0  0
  135.8693  151.3696  144.7949 C   0  0  0  0  0  0  0  0  0  0  0  0
  136.4015  152.3241  145.5372 C   0  0  0  0  0  0  0  0  0  0  0  0
  1  2  1  0
  2  3  2  0
  1  4  2  0
  4  5  1  0
  3  6  1  0
  5  7  2  0
  3  8  1  0
  7  8  1  0
  8  9  2  0
  6 10  2  0
  9 10  1  0
M  END
$$$$

     RDKit          3D

 10  9  0  0  0  0  0  0  0  0999 V2000
  138.9697  151.3146  142.5684 C   0  0  0  0  0  0  0  0  0  0  0  0
  138.6018  152.0883  143.2657 C   0  0  0  0  0  0  0  0  0  0  0  0
  139.7627  151.4691  141.3553 C   0  0  0  0  0  0  0  0  0  0  0  0
  137.7629  151.7021  144.3622 C   0  0  0  0  0  0  0  0  0  0  0  0
  136.8760  152.4884  145.1644 C   0  0  0  0  0  0  0  0  0  0  0  0
  137.0828  153.8003  145.1271 C   0  0  0  0  0  0  0  0  0  0  0  0
  135.7474  152.0603  145.7143 C   0  0  0  0  0  0  0  0  0  0  0  0
  139.5959  150.5273  140.2657 C   0  0  0  0  0  0  0  0  0  0  0  0
  134.7225  152.7474  145.9282 C   0  0  0  0  0  0  0  0  0  0  0  0
  140.3449  150.4120  139.0890 C   0  0  0  0  0  0  0  0  0  0  0  0
  1  2  1  0
  1  3  1  0
  2  4  2  3
  4  5  1  0
  5  6  1  0
  5  7  2  3
  3  8  2  3
  7  9  1  0
  8 10  1  0
M  END
$$$$

     RDKit          3D

 10 10  0  0  0  0  0  0  0  0999 V2000
  138.9697  151.3146  142.5684 C   0  0  0  0  0  0  0  0  0  0  0  0
  138.6018  152.0883  143.2657 C   0  0  0  0  0  0  0  0  0  0  0  0
  137.6374  151.6902  144.0814 C   0  0  0  0  0  0  0  0  0  0  0  0
  140.0289  151.3257  141.4197 C   0  0  0  0  0  0  0  0  0  0  0  0
  138.3155  150.1048  142.4750 C   0  0  0  0  0  0  0  0  0  0  0  0
  137.1598  150.7310  144.0930 C   0  0  0  0  0  0  0  0  0  0  0  0
  137.3088  152.9948  145.0534 C   0  0  0  0  0  0  0  0  0  0  0  0
  136.1413  150.2530  145.1891 C   0  0  0  0  0  0  0  0  0  0  0  0
  137.3913  149.6173  143.3362 C   0  0  0  0  0  0  0  0  0  0  0  0
  139.7702  150.8606  140.2003 C   0  0  0  0  0  0  0  0  0  0  0  0
  1  2  1  0
  2  3  2  0
  1  4  1  0
  1  5  2  0
  3  6  1  0
  3  7  1  0
  6  8  1  0
  5  9  1  0
  6  9  2  0
  4 10  2  0
M  END
$$$$

     RDKit          3D

 10 11  0  0  0  0  0  0  0  0999 V2000
  139.3428  149.9936  140.5898 C   0  0  0  0  0  0  0  0  0  0  0  0
  138.9752  149.9369  139.3605 C   0  0  0  0  0  0  0  0  0  0  0  0
  138.5862  150.0774  141.6376 C   0  0  0  0  0  0  0  0  0  0  0  0
  137.6061  149.8652  139.0267 C   0  0  0  0  0  0  0  0  0  0  0  0
  137.1311  149.9324  141.4833 C   0  0  0  0  0  0  0  0  0  0  0  0
  136.2248  150.0770  142.5714 C   0  0  0  0  0  0  0  0  0  0  0  0
  136.7547  150.9539  143.4667 C   0  0  0  0  0  0  0  0  0  0  0  0
  137.8863  151.7315  143.3882 C   0  0  0  0  0  0  0  0  0  0  0  0
  136.6142  149.8408  140.1208 C   0  0  0  0  0  0  0  0  0  0  0  0
  138.9142  150.7428  142.9238 C   0  0  0  0  0  0  0  0  0  0  0  0
  1  2  2  0
  1  3  1  0
  2  4  1  0
  3  5  2  0
  5  6  1  0
  6  7  1  0
  7  8  2  0
  4  9  2  0
  5  9  1  0
  3 10  1  0
  8 10  1  0
M  END
$$$$

     RDKit          3D

 10 11  0  0  0  0  0  0  0  0999 V2000
  139.2620  151.0921  142.4039 C   0  0  0  0  0  0  0  0  0  0  0  0
  138.8618  152.1315  142.9023 C   0  0  0  0  0  0  0  0  0  0  0  0
  137.9130  151.7995  143.7812 C   0  0  0  0  0  0  0  0  0  0  0  0
  138.7614  149.7943  142.5265 C   0  0  0  0  0  0  0  0  0  0  0  0
  137.2974  152.8737  144.6385 C   0  0  0  0  0  0  0  0  0  0  0  0
  137.4402  150.4143  143.9194 C   0  0  0  0  0  0  0  0  0  0  0  0
  135.9792  152.6812  145.1315 C   0  0  0  0  0  0  0  0  0  0  0  0
  136.4191  150.3072  145.0115 C   0  0  0  0  0  0  0  0  0  0  0  0
  137.9148  149.4613  143.4218 N   0  0  0  0  0  0  0  0  0  0  0  0
  135.8819  151.5141  145.5517 C   0  0  0  0  0  0  0  0  0  0  0  0
  1  2  1  0
  2  3  2  0
  1  4  2  0
  3  5  1  0
  3  6  1  0
  5  7  1  0
  6  8  1  0
  4  9  1  0
  6  9  2  0
  7 10  1  0
  8 10  1  0
M  END
$$$$

     RDKit          3D

 10 10  0  0  0  0  0  0  0  0999 V2000
  140.3019  150.2145  139.4802 Cl  0  0  0  0  0  0  0  0  0  0  0  0
  138.6758  150.1820  140.5311 C   0  0  0  0  0  0  0  0  0  0  0  0
  137.6364  149.3800  140.0902 C   0  0  0  0  0  0  0  0  0  0  0  0
  139.0293  150.8783  141.6179 C   0  0  0  0  0  0  0  0  0  0  0  0
  136.6543  149.6401  140.8165 C   0  0  0  0  0  0  0  0  0  0  0  0
  136.6465  150.4482  141.8728 C   0  0  0  0  0  0  0  0  0  0  0  0
  135.4265  150.7339  142.7828 C   0  0  0  0  0  0  0  0  0  0  0  0
  137.8510  151.0581  142.3906 C   0  0  0  0  0  0  0  0  0  0  0  0
  135.6680  150.8840  144.1243 C   0  0  0  0  0  0  0  0  0  0  0  0
  136.3873  150.3464  144.9244 C   0  0  0  0  0  0  0  0  0  0  0  0
  1  2  1  0
  2  3  2  0
  2  4  1  0
  3  5  1  0
  5  6  2  0
  6  7  1  0
  4  8  2  0
  6  8  1  0
  7  9  2  3
  9 10  1  0
M  END
$$$$

     RDKit          3D

 10 10  0  0  0  0  0  0  0  0999 V2000
  138.7240  151.5758  143.3184 C   0  0  0  0  0  0  0  0  0  0  0  0
  137.9193  152.3258  143.7536 C   0  0  0  0  0  0  0  0  0  0  0  0
  136.7526  151.8075  144.4391 C   0  0  0  0  0  0  0  0  0  0  0  0
  136.7825  150.4607  144.6808 C   0  0  0  0  0  0  0  0  0  0  0  0
  135.8633  152.6144  145.2382 C   0  0  0  0  0  0  0  0  0  0  0  0
  138.4720  150.1666  143.2072 C   0  0  0  0  0  0  0  0  0  0  0  0
  135.9938  153.8877  145.3789 C   0  0  0  0  0  0  0  0  0  0  0  0
  134.7465  151.9838  145.8269 C   0  0  0  0  0  0  0  0  0  0  0  0
  133.8318  152.6822  146.4933 C   0  0  0  0  0  0  0  0  0  0  0  0
  137.6205  149.5524  144.0129 C   0  0  0  0  0  0  0  0  0  0  0  0
  1  2  1  0
  2  3  2  0
  3  4  1  0
  3  5  1  0
  1  6  2  0
  5  7  1  0
  5  8  2  3
  8  9  1  0
  4 10  2  0
  6 10  1  0
M  END
$$$$

     RDKit          3D

 10 10  0  0  0  0  0  0  0  0999 V2000
  138.9697  151.3146  142.5684 C   0  0  0  0  0  0  0  0  0  0  0  0
  138.6018  152.0883  143.2657 C   0  0  0  0  0  0  0  0  0  0  0  0
  137.6687  151.8115  144.0583 C   0  0  0  0  0  0  0  0  0  0  0  0
  137.4111  150.3597  144.4812 C   0  0  0  0  0  0  0  0  0  0  0  0
  136.7342  152.6392  144.8895 C   0  0  0  0  0  0  0  0  0  0  0  0
  138.6202  149.8844  142.6454 C   0  0  0  0  0  0  0  0  0  0  0  0
  135.4452  152.2536  145.2446 C   0  0  0  0  0  0  0  0  0  0  0  0
  137.9213  149.4908  143.6863 C   0  0  0  0  0  0  0  0  0  0  0  0
  134.9569  151.0173  145.1997 C   0  0  0  0  0  0  0  0  0  0  0  0
  134.6801  153.3893  145.7441 C   0  0  0  0  0  0  0  0  0  0  0  0
  1  2  2  0
  2  3  1  0
  3  4  2  0
  3  5  1  0
  1  6  1  0
  5  7  2  3
  4  8  1  0
  6  8  2  0
  7  9  1  0
  7 10  1  0
M  END
$$$$

     RDKit          3D

 10 11  0  0  0  0  0  0  0  0999 V2000
  138.9697  151.3146  142.5684 C   0  0  0  0  0  0  0  0  0  0  0  0
  138.6018  152.0883  143.2657 C   0  0  0  0  0  0  0  0  0  0  0  0
  137.6687  151.8115  144.0583 C   0  0  0  0  0  0  0  0  0  0  0  0
  138.4238  149.9019  142.6316 C   0  0  0  0  0  0  0  0  0  0  0  0
  137.0853  152.8322  145.0064 C   0  0  0  0  0  0  0  0  0  0  0  0
  135.8131  152.6633  145.6298 C   0  0  0  0  0  0  0  0  0  0  0  0
  135.2593  151.3554  145.2720 C   0  0  0  0  0  0  0  0  0  0  0  0
  136.0194  150.4595  144.5707 C   0  0  0  0  0  0  0  0  0  0  0  0
  137.2503  150.5738  143.9444 C   0  0  0  0  0  0  0  0  0  0  0  0
  137.6884  149.6107  143.3810 N   0  0  0  0  0  0  0  0  0  0  0  0
  1  2  2  0
  2  3  1  0
  1  4  1  0
  3  5  1  0
  5  6  2  0
  6  7  1  0
  7  8  2  0
  3  9  2  0
  8  9  1  0
  4 10  2  0
  9 10  1  0
M  END
$$$$

     RDKit          3D

 10 10  0  0  0  0  0  0  0  0999 V2000
  139.2620  151.0921  142.4039 C   0  0  0  0  0  0  0  0  0  0  0  0
  138.8618  152.1315  142.9023 C   0  0  0  0  0  0  0  0  0  0  0  0
  137.9130  151.7995  143.7812 C   0  0  0  0  0  0  0  0  0  0  0  0
  138.8259  150.3979  141.6057 C   0  0  0  0  0  0  0  0  0  0  0  0
  137.6638  149.9538  141.7688 C   0  0  0  0  0  0  0  0  0  0  0  0
  136.8708  149.2111  140.7606 C   0  0  0  0  0  0  0  0  0  0  0  0
  136.7431  150.9745  143.2785 C   0  0  0  0  0  0  0  0  0  0  0  0
  135.5771  151.3002  144.2643 C   0  0  0  0  0  0  0  0  0  0  0  0
  136.7170  150.1756  142.3465 C   0  0  0  0  0  0  0  0  0  0  0  0
  135.1031  150.6326  145.0902 C   0  0  0  0  0  0  0  0  0  0  0  0
  1  2  1  0
  2  3  2  0
  1  4  2  0
  4  5  1  0
  5  6  1  0
  3  7  1  0
  7  8  1  0
  5  9  2  0
  7  9  2  0
  8 10  2  0
M  END
$$$$

     RDKit          3D

 10 10  0  0  0  0  0  0  0  0999 V2000
  138.7240  151.5758  143.3184 C   0  0  0  0  0  0  0  0  0  0  0  0
  137.9193  152.3258  143.7536 C   0  0  0  0  0  0  0  0  0  0  0  0
  136.7526  151.8075  144.4391 C   0  0  0  0  0  0  0  0  0  0  0  0
  136.7825  150.4607  144.6808 C   0  0  0  0  0  0  0  0  0  0  0  0
  138.7110  150.3798  142.9931 C   0  0  0  0  0  0  0  0  0  0  0  0
  139.6064  149.6235  142.1662 C   0  0  0  0  0  0  0  0  0  0  0  0
  137.6332  149.7033  143.8880 C   0  0  0  0  0  0  0  0  0  0  0  0
  135.7490  152.6710  145.2878 C   0  0  0  0  0  0  0  0  0  0  0  0
  139.4766  150.0455  140.7567 C   0  0  0  0  0  0  0  0  0  0  0  0
  140.3602  150.2750  140.1093 C   0  0  0  0  0  0  0  0  0  0  0  0
  1  2  1  0
  2  3  2  0
  3  4  1  0
  1  5  2  0
  5  6  1  0
  4  7  2  0
  5  7  1  0
  3  8  1  0
  6  9  1  0
  9 10  2  0
M  END
$$$$

     RDKit          3D

 10 10  0  0  0  0  0  0  0  0999 V2000
  140.3019  150.2145  139.4802 Cl  0  0  0  0  0  0  0  0  0  0  0  0
  138.6758  150.1820  140.5311 C   0  0  0  0  0  0  0  0  0  0  0  0
  137.6364  149.3800  140.0902 C   0  0  0  0  0  0  0  0  0  0  0  0
  137.5436  148.9622  138.7410 C   0  0  0  0  0  0  0  0  0  0  0  0
  138.4827  150.4324  141.7166 C   0  0  0  0  0  0  0  0  0  0  0  0
  136.4911  149.4153  140.9672 C   0  0  0  0  0  0  0  0  0  0  0  0
  137.6978  150.4722  142.4585 C   0  0  0  0  0  0  0  0  0  0  0  0
  135.2225  148.9999  140.3643 C   0  0  0  0  0  0  0  0  0  0  0  0
  136.5519  149.9881  142.1362 C   0  0  0  0  0  0  0  0  0  0  0  0
  137.7639  151.1670  144.0596 Cl  0  0  0  0  0  0  0  0  0  0  0  0
  1  2  1  0
  2  3  2  0
  3  4  1  0
  2  5  1  0
  3  6  1  0
  5  7  2  0
  6  8  1  0
  6  9  2  0
  7  9  1  0
  7 10  1  0
M  END
$$$$

     RDKit          3D

 10 10  0  0  0  0  0  0  0  0999 V2000
  138.9697  151.3146  142.5684 C   0  0  0  0  0  0  0  0  0  0  0  0
  138.6018  152.0883  143.2657 C   0  0  0  0  0  0  0  0  0  0  0  0
  137.4864  151.7371  144.1980 C   0  0  0  0  0  0  0  0  0  0  0  0
  139.9864  151.4011  141.4219 C   0  0  0  0  0  0  0  0  0  0  0  0
  138.3662  149.9208  142.4643 C   0  0  0  0  0  0  0  0  0  0  0  0
  137.0554  150.4385  144.0798 C   0  0  0  0  0  0  0  0  0  0  0  0
  137.4837  149.4758  143.2809 C   0  0  0  0  0  0  0  0  0  0  0  0
  139.9674  150.5701  140.2923 C   0  0  0  0  0  0  0  0  0  0  0  0
  140.8267  150.8324  139.1773 C   0  0  0  0  0  0  0  0  0  0  0  0
  136.8868  152.8202  145.2662 C   0  0  0  0  0  0  0  0  0  0  0  0
  1  2  1  0
  2  3  2  0
  1  4  1  0
  1  5  2  0
  3  6  1  0
  5  7  1  0
  6  7  2  0
  4  8  2  3
  8  9  1  0
  3 10  1  0
M  END
$$$$

     RDKit          3D

 10 10  0  0  0  0  0  0  0  0999 V2000
  138.9697  151.3146  142.5684 C   0  0  0  0  0  0  0  0  0  0  0  0
  138.6018  152.0883  143.2657 C   0  0  0  0  0  0  0  0  0  0  0  0
  137.4864  151.7371  144.1980 C   0  0  0  0  0  0  0  0  0  0  0  0
  139.9864  151.4011  141.4219 C   0  0  0  0  0  0  0  0  0  0  0  0
  136.7358  152.5376  145.0264 C   0  0  0  0  0  0  0  0  0  0  0  0
  139.7034  150.7343  140.1991 C   0  0  0  0  0  0  0  0  0  0  0  0
  138.6320  149.7541  140.4220 C   0  0  0  0  0  0  0  0  0  0  0  0
  138.1706  150.0879  142.1973 C   0  0  0  0  0  0  0  0  0  0  0  0
  137.0248  153.8656  145.1856 O   0  0  0  0  0  0  0  0  0  0  0  0
  135.6246  152.0697  145.6521 O   0  0  0  0  0  0  0  0  0  0  0  0
  1  2  1  0
  2  3  2  3
  1  4  1  0
  3  5  1  0
  4  6  2  0
  6  7  1  0
  1  8  2  0
  7  8  1  0
  5  9  2  0
  5 10  1  0
M  END
$$$$

     RDKit          3D

 10 10  0  0  0  0  0  0  0  0999 V2000
  139.2620  151.0921  142.4039 C   0  0  0  0  0  0  0  0  0  0  0  0
  138.8618  152.1315  142.9023 C   0  0  0  0  0  0  0  0  0  0  0  0
  137.7838  151.8936  143.8932 C   0  0  0  0  0  0  0  0  0  0  0  0
  137.3596  150.5423  144.0627 C   0  0  0  0  0  0  0  0  0  0  0  0
  136.3232  150.4823  145.1226 C   0  0  0  0  0  0  0  0  0  0  0  0
  139.4748  150.9226  141.2198 C   0  0  0  0  0  0  0  0  0  0  0  0
  135.8799  151.6090  145.5505 C   0  0  0  0  0  0  0  0  0  0  0  0
  137.1945  152.7449  144.6426 C   0  0  0  0  0  0  0  0  0  0  0  0
  134.6613  151.4267  146.5662 C   0  0  0  0  0  0  0  0  0  0  0  0
  136.1920  152.7910  145.4117 C   0  0  0  0  0  0  0  0  0  0  0  0
  1  2  1  0
  2  3  2  3
  3  4  1  0
  4  5  2  0
  1  6  2  0
  5  7  1  0
  3  8  1  0
  7  9  1  0
  7 10  2  0
  8 10  2  0
M  END
$$$$

     RDKit          3D

 10 10  0  0  0  0  0  0  0  0999 V2000
  139.2620  151.0921  142.4039 C   0  0  0  0  0  0  0  0  0  0  0  0
  138.8618  152.1315  142.9023 C   0  0  0  0  0  0  0  0  0  0  0  0
  137.7838  151.8936  143.8932 C   0  0  0  0  0  0  0  0  0  0  0  0
  137.3596  150.5423  144.0627 C   0  0  0  0  0  0  0  0  0  0  0  0
  136.3232  150.4823  145.1226 C   0  0  0  0  0  0  0  0  0  0  0  0
  139.4748  150.9226  141.2198 C   0  0  0  0  0  0  0  0  0  0  0  0
  135.8799  151.6090  145.5505 C   0  0  0  0  0  0  0  0  0  0  0  0
  137.1945  152.7449  144.6426 C   0  0  0  0  0  0  0  0  0  0  0  0
  134.6613  151.4267  146.5662 C   0  0  0  0  0  0  0  0  0  0  0  0
  136.2317  152.8581  145.3570 C   0  0  0  0  0  0  0  0  0  0  0  0
  1  2  1  0
  2  3  2  3
  3  4  1  0
  4  5  2  0
  1  6  2  0
  5  7  1  0
  3  8  1  0
  7  9  1  0
  7 10  2  0
  8 10  1  0
M  END
$$$$

     RDKit          3D

 10 10  0  0  0  0  0  0  0  0999 V2000
  138.9697  151.3146  142.5684 C   0  0  0  0  0  0  0  0  0  0  0  0
  138.6018  152.0883  143.2657 C   0  0  0  0  0  0  0  0  0  0  0  0
  137.6374  151.6902  144.0814 C   0  0  0  0  0  0  0  0  0  0  0  0
  140.0289  151.3257  141.4197 C   0  0  0  0  0  0  0  0  0  0  0  0
  137.1948  150.3123  143.8930 C   0  0  0  0  0  0  0  0  0  0  0  0
  139.8113  150.4471  140.2754 C   0  0  0  0  0  0  0  0  0  0  0  0
  138.3146  149.9305  142.4430 C   0  0  0  0  0  0  0  0  0  0  0  0
  140.6766  150.7855  139.1049 C   0  0  0  0  0  0  0  0  0  0  0  0
  137.4976  149.4889  143.2751 C   0  0  0  0  0  0  0  0  0  0  0  0
  136.8987  152.7256  145.2846 C   0  0  0  0  0  0  0  0  0  0  0  0
  1  2  1  0
  2  3  2  0
  1  4  1  0
  3  5  1  0
  4  6  1  0
  1  7  2  0
  6  8  1  0
  5  9  2  0
  7  9  1  0
  3 10  1  0
M  END
$$$$

     RDKit          3D

 10 11  0  0  0  0  0  0  0  0999 V2000
  138.7086  151.1469  142.6266 C   0  0  0  0  0  0  0  0  0  0  0  0
  138.5250  151.9368  143.5112 C   0  0  0  0  0  0  0  0  0  0  0  0
  137.3811  151.6572  144.3961 C   0  0  0  0  0  0  0  0  0  0  0  0
  139.7008  151.1089  141.6121 C   0  0  0  0  0  0  0  0  0  0  0  0
  139.6260  150.4243  140.3624 C   0  0  0  0  0  0  0  0  0  0  0  0
  138.4083  149.6133  140.3617 C   0  0  0  0  0  0  0  0  0  0  0  0
  137.5986  150.0970  142.5687 C   0  0  0  0  0  0  0  0  0  0  0  0
  138.0177  149.0116  139.1506 C   0  0  0  0  0  0  0  0  0  0  0  0
  137.4351  149.7052  141.2763 C   0  0  0  0  0  0  0  0  0  0  0  0
  136.8590  150.3297  143.7536 N   0  0  0  0  0  0  0  0  0  0  0  0
  1  2  1  0
  2  3  2  0
  1  4  1  0
  4  5  2  0
  5  6  1  0
  1  7  2  0
  6  8  1  0
  6  9  2  0
  7  9  1  0
  3 10  1  0
  7 10  1  0
M  END
$$$$

     RDKit          3D

 10 10  0  0  0  0  0  0  0  0999 V2000
  140.3019  150.2145  139.4802 Cl  0  0  0  0  0  0  0  0  0  0  0  0
  138.6758  150.1820  140.5311 C   0  0  0  0  0  0  0  0  0  0  0  0
  137.6364  149.3800  140.0902 C   0  0  0  0  0  0  0  0  0  0  0  0
  137.5436  148.9622  138.7410 C   0  0  0  0  0  0  0  0  0  0  0  0
  138.4827  150.4324  141.7166 C   0  0  0  0  0  0  0  0  0  0  0  0
  136.4911  149.4153  140.9672 C   0  0  0  0  0  0  0  0  0  0  0  0
  137.3926  150.3484  142.5006 C   0  0  0  0  0  0  0  0  0  0  0  0
  139.7583  151.2525  142.5446 Cl  0  0  0  0  0  0  0  0  0  0  0  0
  135.2522  148.9164  140.1255 C   0  0  0  0  0  0  0  0  0  0  0  0
  136.3421  149.9813  142.1815 C   0  0  0  0  0  0  0  0  0  0  0  0
  1  2  1  0
  2  3  2  0
  3  4  1  0
  2  5  1  0
  3  6  1  0
  5  7  2  0
  5  8  1  0
  6  9  1  0
  6 10  2  0
  7 10  1  0
M  END
$$$$

     RDKit          3D

 10 10  0  0  0  0  0  0  0  0999 V2000
  140.3019  150.2145  139.4802 Cl  0  0  0  0  0  0  0  0  0  0  0  0
  138.6758  150.1820  140.5311 C   0  0  0  0  0  0  0  0  0  0  0  0
  137.6364  149.3800  140.0902 C   0  0  0  0  0  0  0  0  0  0  0  0
  139.2345  150.7148  141.5757 C   0  0  0  0  0  0  0  0  0  0  0  0
  138.3506  151.0464  142.3754 C   0  0  0  0  0  0  0  0  0  0  0  0
  137.5082  148.8204  138.8309 C   0  0  0  0  0  0  0  0  0  0  0  0
  136.5827  149.7696  140.9317 C   0  0  0  0  0  0  0  0  0  0  0  0
  138.6187  151.7541  143.7330 C   0  0  0  0  0  0  0  0  0  0  0  0
  137.6301  151.9667  144.4855 C   0  0  0  0  0  0  0  0  0  0  0  0
  136.8848  150.5336  142.2123 C   0  0  0  0  0  0  0  0  0  0  0  0
  1  2  1  0
  2  3  1  0
  2  4  2  0
  4  5  1  0
  3  6  1  0
  3  7  2  0
  5  8  1  0
  8  9  2  0
  5 10  2  0
  7 10  1  0
M  END
$$$$

     RDKit          3D

 10 10  0  0  0  0  0  0  0  0999 V2000
  139.5550  150.5075  140.4438 C   0  0  0  0  0  0  0  0  0  0  0  0
  139.2165  150.0149  139.3725 C   0  0  0  0  0  0  0  0  0  0  0  0
  138.8581  150.3072  141.5852 C   0  0  0  0  0  0  0  0  0  0  0  0
  139.2270  150.3459  142.8891 C   0  0  0  0  0  0  0  0  0  0  0  0
  138.5608  151.2821  143.6742 C   0  0  0  0  0  0  0  0  0  0  0  0
  137.3263  151.7109  143.2034 C   0  0  0  0  0  0  0  0  0  0  0  0
  136.9645  151.3797  141.9429 C   0  0  0  0  0  0  0  0  0  0  0  0
  137.6042  150.5907  141.1281 C   0  0  0  0  0  0  0  0  0  0  0  0
  140.0506  149.8003  138.1790 C   0  0  0  0  0  0  0  0  0  0  0  0
  136.5324  152.7123  144.2645 C   0  0  0  0  0  0  0  0  0  0  0  0
  1  2  2  3
  1  3  1  0
  3  4  1  0
  4  5  2  0
  5  6  1  0
  6  7  2  0
  3  8  2  0
  7  8  1  0
  2  9  1  0
  6 10  1  0
M  END
$$$$

     RDKit          3D

 10 10  0  0  0  0  0  0  0  0999 V2000
  139.3428  149.9936  140.5898 C   0  0  0  0  0  0  0  0  0  0  0  0
  138.9752  149.9369  139.3605 C   0  0  0  0  0  0  0  0  0  0  0  0
  138.5862  150.0774  141.6376 C   0  0  0  0  0  0  0  0  0  0  0  0
  137.2156  149.9043  141.8335 C   0  0  0  0  0  0  0  0  0  0  0  0
  136.5021  149.8247  140.5813 C   0  0  0  0  0  0  0  0  0  0  0  0
  139.1623  150.4261  143.1243 C   0  0  0  0  0  0  0  0  0  0  0  0
  138.2139  150.9754  144.0752 C   0  0  0  0  0  0  0  0  0  0  0  0
  135.0949  149.7489  140.3557 C   0  0  0  0  0  0  0  0  0  0  0  0
  137.4010  149.7740  139.3486 C   0  0  0  0  0  0  0  0  0  0  0  0
  137.6230  152.2205  143.8487 C   0  0  0  0  0  0  0  0  0  0  0  0
  1  2  2  0
  1  3  1  0
  3  4  1  0
  4  5  2  0
  3  6  1  0
  6  7  1  0
  5  8  1  0
  2  9  1  0
  5  9  1  0
  7 10  1  0
M  END
$$$$

     RDKit          3D

 10 10  0  0  0  0  0  0  0  0999 V2000
  138.9697  151.3146  142.5684 C   0  0  0  0  0  0  0  0  0  0  0  0
  138.6018  152.0883  143.2657 C   0  0  0  0  0  0  0  0  0  0  0  0
  137.6374  151.6902  144.0814 C   0  0  0  0  0  0  0  0  0  0  0  0
  140.0289  151.3257  141.4197 C   0  0  0  0  0  0  0  0  0  0  0  0
  137.1948  150.3123  143.8930 C   0  0  0  0  0  0  0  0  0  0  0  0
  139.8113  150.4471  140.2754 C   0  0  0  0  0  0  0  0  0  0  0  0
  138.3146  149.9305  142.4430 C   0  0  0  0  0  0  0  0  0  0  0  0
  140.6766  150.7855  139.1049 C   0  0  0  0  0  0  0  0  0  0  0  0
  137.4976  149.4889  143.2751 C   0  0  0  0  0  0  0  0  0  0  0  0
  136.8987  152.7256  145.2846 Cl  0  0  0  0  0  0  0  0  0  0  0  0
  1  2  1  0
  2  3  2  0
  1  4  1  0
  3  5  1  0
  4  6  1  0
  1  7  2  0
  6  8  1  0
  5  9  2  0
  7  9  1  0
  3 10  1  0
M  END
$$$$

     RDKit          3D

 10 10  0  0  0  0  0  0  0  0999 V2000
  139.2620  151.0921  142.4039 C   0  0  0  0  0  0  0  0  0  0  0  0
  138.8618  152.1315  142.9023 C   0  0  0  0  0  0  0  0  0  0  0  0
  137.9130  151.7995  143.7812 C   0  0  0  0  0  0  0  0  0  0  0  0
  138.8259  150.3979  141.6057 C   0  0  0  0  0  0  0  0  0  0  0  0
  137.6638  149.9538  141.7688 C   0  0  0  0  0  0  0  0  0  0  0  0
  136.7250  151.0112  143.4740 C   0  0  0  0  0  0  0  0  0  0  0  0
  136.5486  150.2645  142.7010 C   0  0  0  0  0  0  0  0  0  0  0  0
  135.6014  151.4064  144.6451 C   0  0  0  0  0  0  0  0  0  0  0  0
  139.6081  149.6337  140.4145 C   0  0  0  0  0  0  0  0  0  0  0  0
  140.8131  150.0858  140.0916 C   0  0  0  0  0  0  0  0  0  0  0  0
  1  2  1  0
  2  3  2  0
  1  4  2  0
  4  5  1  0
  3  6  1  0
  5  7  1  0
  6  7  2  0
  6  8  1  0
  4  9  1  0
  9 10  2  0
M  END
$$$$

     RDKit          3D

 10 10  0  0  0  0  0  0  0  0999 V2000
  140.3019  150.2145  139.4802 Cl  0  0  0  0  0  0  0  0  0  0  0  0
  138.6758  150.1820  140.5311 C   0  0  0  0  0  0  0  0  0  0  0  0
  137.6364  149.3800  140.0902 C   0  0  0  0  0  0  0  0  0  0  0  0
  136.4360  149.4525  140.8154 C   0  0  0  0  0  0  0  0  0  0  0  0
  139.1314  150.7497  141.5093 C   0  0  0  0  0  0  0  0  0  0  0  0
  138.1131  150.7916  142.6542 C   0  0  0  0  0  0  0  0  0  0  0  0
  135.1492  149.2317  140.4372 C   0  0  0  0  0  0  0  0  0  0  0  0
  138.4196  151.3905  143.9383 C   0  0  0  0  0  0  0  0  0  0  0  0
  136.7853  150.4836  142.9834 N   0  0  0  0  0  0  0  0  0  0  0  0
  135.9934  150.0967  141.9975 C   0  0  0  0  0  0  0  0  0  0  0  0
  1  2  1  0
  2  3  2  0
  3  4  1  0
  2  5  1  0
  5  6  2  0
  4  7  1  0
  6  8  1  0
  6  9  1  0
  4 10  1  0
  9 10  1  0
M  END
$$$$

     RDKit          3D

 10 10  0  0  0  0  0  0  0  0999 V2000
  140.3019  150.2145  139.4802 Cl  0  0  0  0  0  0  0  0  0  0  0  0
  138.6758  150.1820  140.5311 C   0  0  0  0  0  0  0  0  0  0  0  0
  137.6364  149.3800  140.0902 C   0  0  0  0  0  0  0  0  0  0  0  0
  138.7704  150.9236  141.6515 C   0  0  0  0  0  0  0  0  0  0  0  0
  138.1279  150.9106  142.4389 C   0  0  0  0  0  0  0  0  0  0  0  0
  136.8217  150.0703  142.3023 C   0  0  0  0  0  0  0  0  0  0  0  0
  138.0755  151.5217  144.1961 Cl  0  0  0  0  0  0  0  0  0  0  0  0
  135.7835  150.1846  143.2411 C   0  0  0  0  0  0  0  0  0  0  0  0
  137.5798  148.8507  138.8625 C   0  0  0  0  0  0  0  0  0  0  0  0
  136.5141  149.4669  141.0413 C   0  0  0  0  0  0  0  0  0  0  0  0
  1  2  1  0
  2  3  1  0
  2  4  2  0
  4  5  1  0
  5  6  2  0
  5  7  1  0
  6  8  1  0
  3  9  1  0
  3 10  2  0
  6 10  1  0
M  END
$$$$

     RDKit          3D

 11 12  0  0  0  0  0  0  0  0999 V2000
  140.3019  150.2145  139.4802 Cl  0  0  0  0  0  0  0  0  0  0  0  0
  138.6758  150.1820  140.5311 C   0  0  0  0  0  0  0  0  0  0  0  0
  137.6364  149.3800  140.0902 C   0  0  0  0  0  0  0  0  0  0  0  0
  139.0293  150.8783  141.6179 C   0  0  0  0  0  0  0  0  0  0  0  0
  136.6543  149.6401  140.8165 C   0  0  0  0  0  0  0  0  0  0  0  0
  138.0311  151.0105  142.5251 C   0  0  0  0  0  0  0  0  0  0  0  0
  138.1755  151.7013  143.8064 C   0  0  0  0  0  0  0  0  0  0  0  0
  137.1234  151.8706  144.6589 C   0  0  0  0  0  0  0  0  0  0  0  0
  135.9769  151.1765  144.3212 C   0  0  0  0  0  0  0  0  0  0  0  0
  136.6527  150.3848  142.1269 C   0  0  0  0  0  0  0  0  0  0  0  0
  135.6679  150.6361  143.0878 C   0  0  0  0  0  0  0  0  0  0  0  0
  1  2  1  0
  2  3  2  0
  2  4  1  0
  3  5  1  0
  4  6  2  0
  6  7  1  0
  7  8  2  0
  8  9  1  0
  5 10  2  0
  6 10  1  0
  9 11  2  0
 10 11  1  0
M  END
$$$$

     RDKit          3D

 11 12  0  0  0  0  0  0  0  0999 V2000
  139.2620  151.0921  142.4039 C   0  0  0  0  0  0  0  0  0  0  0  0
  138.8618  152.1315  142.9023 C   0  0  0  0  0  0  0  0  0  0  0  0
  137.7838  151.8936  143.8932 C   0  0  0  0  0  0  0  0  0  0  0  0
  138.6285  149.7791  142.4985 C   0  0  0  0  0  0  0  0  0  0  0  0
  137.6223  149.7014  143.4857 C   0  0  0  0  0  0  0  0  0  0  0  0
  137.3782  153.1180  144.6924 C   0  0  0  0  0  0  0  0  0  0  0  0
  136.2207  153.0330  145.2876 C   0  0  0  0  0  0  0  0  0  0  0  0
  137.2330  150.6336  144.1986 C   0  0  0  0  0  0  0  0  0  0  0  0
  135.3778  151.9139  145.4837 C   0  0  0  0  0  0  0  0  0  0  0  0
  134.3645  151.8693  146.3174 C   0  0  0  0  0  0  0  0  0  0  0  0
  135.6704  150.7003  144.7338 C   0  0  0  0  0  0  0  0  0  0  0  0
  1  2  1  0
  2  3  2  0
  1  4  2  0
  4  5  1  0
  3  6  1  0
  6  7  2  0
  3  8  1  0
  5  8  2  0
  7  9  1  0
  9 10  1  0
  8 11  1  0
  9 11  2  0
M  END
$$$$

     RDKit          3D

 11 12  0  0  0  0  0  0  0  0999 V2000
  139.2620  151.0921  142.4039 C   0  0  0  0  0  0  0  0  0  0  0  0
  138.8618  152.1315  142.9023 C   0  0  0  0  0  0  0  0  0  0  0  0
  137.7838  151.8936  143.8932 C   0  0  0  0  0  0  0  0  0  0  0  0
  137.3596  150.5423  144.0627 C   0  0  0  0  0  0  0  0  0  0  0  0
  136.3232  150.4823  145.1226 C   0  0  0  0  0  0  0  0  0  0  0  0
  139.2662  149.7547  142.8065 C   0  0  0  0  0  0  0  0  0  0  0  0
  138.1300  149.4969  143.5633 C   0  0  0  0  0  0  0  0  0  0  0  0
  135.7805  151.6674  145.3651 C   0  0  0  0  0  0  0  0  0  0  0  0
  140.2694  151.3649  141.2293 C   0  0  0  0  0  0  0  0  0  0  0  0
  136.8893  152.7933  144.5936 C   0  0  0  0  0  0  0  0  0  0  0  0
  140.0257  150.6592  140.1266 C   0  0  0  0  0  0  0  0  0  0  0  0
  1  2  1  0
  2  3  2  0
  3  4  1  0
  4  5  2  0
  1  6  1  0
  4  7  1  0
  6  7  2  0
  5  8  1  0
  1  9  2  3
  3 10  1  0
  8 10  2  0
  9 11  1  0
M  END
$$$$

     RDKit          3D

 11 12  0  0  0  0  0  0  0  0999 V2000
  138.9697  151.3146  142.5684 C   0  0  0  0  0  0  0  0  0  0  0  0
  138.6018  152.0883  143.2657 C   0  0  0  0  0  0  0  0  0  0  0  0
  137.6687  151.8115  144.0583 C   0  0  0  0  0  0  0  0  0  0  0  0
  139.9926  151.3705  141.4268 C   0  0  0  0  0  0  0  0  0  0  0  0
  137.5512  150.6294  144.9277 C   0  0  0  0  0  0  0  0  0  0  0  0
  139.6588  150.7358  140.2572 C   0  0  0  0  0  0  0  0  0  0  0  0
  138.5025  150.0408  140.2323 C   0  0  0  0  0  0  0  0  0  0  0  0
  137.6103  149.8214  141.4294 C   0  0  0  0  0  0  0  0  0  0  0  0
  137.9847  150.3939  142.6050 C   0  0  0  0  0  0  0  0  0  0  0  0
  137.9967  149.4104  139.0357 C   0  0  0  0  0  0  0  0  0  0  0  0
  137.5173  149.9622  143.8003 N   0  0  0  0  0  0  0  0  0  0  0  0
  1  2  2  0
  2  3  1  0
  1  4  1  0
  3  5  2  0
  4  6  2  0
  6  7  1  0
  7  8  1  0
  1  9  1  0
  8  9  2  0
  7 10  1  0
  5 11  1  0
  9 11  1  0
M  END
$$$$

     RDKit          3D

 11 12  0  0  0  0  0  0  0  0999 V2000
  140.3019  150.2145  139.4802 Cl  0  0  0  0  0  0  0  0  0  0  0  0
  138.6758  150.1820  140.5311 C   0  0  0  0  0  0  0  0  0  0  0  0
  137.6364  149.3800  140.0902 C   0  0  0  0  0  0  0  0  0  0  0  0
  138.8645  150.7144  141.4528 C   0  0  0  0  0  0  0  0  0  0  0  0
  137.8186  150.7977  142.5169 C   0  0  0  0  0  0  0  0  0  0  0  0
  138.0486  151.4509  143.8211 C   0  0  0  0  0  0  0  0  0  0  0  0
  136.6997  150.0744  142.0183 C   0  0  0  0  0  0  0  0  0  0  0  0
  136.9142  151.6355  144.5807 C   0  0  0  0  0  0  0  0  0  0  0  0
  135.5228  150.3517  142.8943 C   0  0  0  0  0  0  0  0  0  0  0  0
  136.4816  149.5069  140.8440 C   0  0  0  0  0  0  0  0  0  0  0  0
  135.8817  151.1114  144.1664 C   0  0  0  0  0  0  0  0  0  0  0  0
  1  2  1  0
  2  3  2  0
  2  4  1  0
  4  5  2  0
  5  6  1  0
  5  7  1  0
  6  8  1  0
  7  9  1  0
  3 10  1  0
  7 10  2  0
  8 11  2  0
  9 11  1  0
M  END
$$$$

     RDKit          3D

 11 12  0  0  0  0  0  0  0  0999 V2000
  138.9697  151.3146  142.5684 C   0  0  0  0  0  0  0  0  0  0  0  0
  138.6018  152.0883  143.2657 C   0  0  0  0  0  0  0  0  0  0  0  0
  137.4864  151.7371  144.1980 C   0  0  0  0  0  0  0  0  0  0  0  0
  139.9864  151.4011  141.4219 C   0  0  0  0  0  0  0  0  0  0  0  0
  138.4091  150.0537  142.3802 C   0  0  0  0  0  0  0  0  0  0  0  0
  137.0323  150.4875  144.0493 C   0  0  0  0  0  0  0  0  0  0  0  0
  137.4445  149.5281  143.2052 C   0  0  0  0  0  0  0  0  0  0  0  0
  139.9795  150.5853  140.2873 C   0  0  0  0  0  0  0  0  0  0  0  0
  139.2095  149.4940  140.1859 C   0  0  0  0  0  0  0  0  0  0  0  0
  138.4335  149.2546  141.3311 N   0  0  0  0  0  0  0  0  0  0  0  0
  137.0401  152.7495  145.1365 C   0  0  0  0  0  0  0  0  0  0  0  0
  1  2  1  0
  2  3  2  0
  1  4  1  0
  1  5  2  0
  3  6  1  0
  5  7  1  0
  6  7  2  0
  4  8  2  0
  8  9  1  0
  5 10  1  0
  9 10  2  0
  3 11  1  0
M  END
$$$$

     RDKit          3D

 11 12  0  0  0  0  0  0  0  0999 V2000
  140.3019  150.2145  139.4802 Cl  0  0  0  0  0  0  0  0  0  0  0  0
  138.6758  150.1820  140.5311 C   0  0  0  0  0  0  0  0  0  0  0  0
  137.6364  149.3800  140.0902 C   0  0  0  0  0  0  0  0  0  0  0  0
  138.8645  150.7144  141.4528 C   0  0  0  0  0  0  0  0  0  0  0  0
  137.8186  150.7977  142.5169 C   0  0  0  0  0  0  0  0  0  0  0  0
  138.0486  151.4509  143.8211 C   0  0  0  0  0  0  0  0  0  0  0  0
  136.6997  150.0744  142.0183 C   0  0  0  0  0  0  0  0  0  0  0  0
  136.9142  151.6355  144.5807 C   0  0  0  0  0  0  0  0  0  0  0  0
  135.5228  150.3517  142.8943 C   0  0  0  0  0  0  0  0  0  0  0  0
  135.7007  151.0774  144.1124 C   0  0  0  0  0  0  0  0  0  0  0  0
  136.4575  149.5327  140.8758 C   0  0  0  0  0  0  0  0  0  0  0  0
  1  2  1  0
  2  3  2  0
  2  4  1  0
  4  5  2  0
  5  6  1  0
  5  7  1  0
  6  8  1  0
  7  9  1  0
  8 10  2  0
  9 10  2  0
  3 11  1  0
  7 11  2  0
M  END
$$$$

     RDKit          3D

 11 12  0  0  0  0  0  0  0  0999 V2000
  138.7086  151.1469  142.6266 C   0  0  0  0  0  0  0  0  0  0  0  0
  138.5250  151.9368  143.5112 C   0  0  0  0  0  0  0  0  0  0  0  0
  137.3811  151.6572  144.3961 C   0  0  0  0  0  0  0  0  0  0  0  0
  139.7008  151.1089  141.6121 C   0  0  0  0  0  0  0  0  0  0  0  0
  136.7115  150.4275  144.0247 C   0  0  0  0  0  0  0  0  0  0  0  0
  139.4324  150.9053  140.3434 C   0  0  0  0  0  0  0  0  0  0  0  0
  138.1388  150.3145  140.1755 C   0  0  0  0  0  0  0  0  0  0  0  0
  137.2061  149.9737  141.1696 C   0  0  0  0  0  0  0  0  0  0  0  0
  135.9163  149.3748  141.0061 C   0  0  0  0  0  0  0  0  0  0  0  0
  137.5039  150.4065  142.5547 C   0  0  0  0  0  0  0  0  0  0  0  0
  136.8477  152.4662  145.5215 C   0  0  0  0  0  0  0  0  0  0  0  0
  1  2  1  0
  2  3  2  0
  1  4  1  0
  3  5  1  0
  4  6  2  0
  6  7  1  0
  7  8  2  0
  8  9  1  0
  1 10  2  0
  5 10  1  0
  8 10  1  0
  3 11  1  0
M  END
$$$$

     RDKit          3D

 11 11  0  0  0  0  0  0  0  0999 V2000
  140.3019  150.2145  139.4802 Cl  0  0  0  0  0  0  0  0  0  0  0  0
  138.6758  150.1820  140.5311 C   0  0  0  0  0  0  0  0  0  0  0  0
  137.6364  149.3800  140.0902 C   0  0  0  0  0  0  0  0  0  0  0  0
  138.7467  150.9432  141.6725 C   0  0  0  0  0  0  0  0  0  0  0  0
  137.7505  150.8693  142.6256 C   0  0  0  0  0  0  0  0  0  0  0  0
  136.5540  149.5179  140.9615 C   0  0  0  0  0  0  0  0  0  0  0  0
  137.8486  151.5544  143.9015 C   0  0  0  0  0  0  0  0  0  0  0  0
  136.6342  150.3033  142.2013 C   0  0  0  0  0  0  0  0  0  0  0  0
  136.7459  151.5122  144.7504 C   0  0  0  0  0  0  0  0  0  0  0  0
  136.2979  150.5464  145.3027 C   0  0  0  0  0  0  0  0  0  0  0  0
  136.4236  152.8237  145.3757 C   0  0  0  0  0  0  0  0  0  0  0  0
  1  2  1  0
  2  3  2  0
  2  4  1  0
  4  5  2  0
  3  6  1  0
  5  7  1  0
  5  8  1  0
  6  8  2  0
  7  9  1  0
  9 10  2  0
  9 11  1  0
M  END
$$$$

     RDKit          3D

 11 12  0  0  0  0  0  0  0  0999 V2000
  139.2620  151.0921  142.4039 C   0  0  0  0  0  0  0  0  0  0  0  0
  138.8618  152.1315  142.9023 C   0  0  0  0  0  0  0  0  0  0  0  0
  137.7838  151.8936  143.8932 C   0  0  0  0  0  0  0  0  0  0  0  0
  137.3596  150.5423  144.0627 C   0  0  0  0  0  0  0  0  0  0  0  0
  136.3232  150.4823  145.1226 C   0  0  0  0  0  0  0  0  0  0  0  0
  139.2662  149.7547  142.8065 C   0  0  0  0  0  0  0  0  0  0  0  0
  138.1300  149.4969  143.5633 C   0  0  0  0  0  0  0  0  0  0  0  0
  140.3208  151.2825  141.2610 C   0  0  0  0  0  0  0  0  0  0  0  0
  139.9126  150.4639  140.0100 C   0  0  0  0  0  0  0  0  0  0  0  0
  135.7591  151.6218  145.4001 C   0  0  0  0  0  0  0  0  0  0  0  0
  136.8961  152.7847  144.6612 C   0  0  0  0  0  0  0  0  0  0  0  0
  1  2  1  0
  2  3  2  0
  3  4  1  0
  4  5  2  0
  1  6  1  0
  4  7  1  0
  6  7  2  0
  1  8  1  0
  8  9  1  0
  5 10  1  0
  3 11  1  0
 10 11  2  0
M  END
$$$$

     RDKit          3D

 11 12  0  0  0  0  0  0  0  0999 V2000
  138.9697  151.3146  142.5684 C   0  0  0  0  0  0  0  0  0  0  0  0
  138.6018  152.0883  143.2657 C   0  0  0  0  0  0  0  0  0  0  0  0
  139.7627  151.4691  141.3553 C   0  0  0  0  0  0  0  0  0  0  0  0
  137.5394  151.8374  144.3779 C   0  0  0  0  0  0  0  0  0  0  0  0
  137.4014  150.5805  144.6885 C   0  0  0  0  0  0  0  0  0  0  0  0
  139.6225  150.4855  140.3438 C   0  0  0  0  0  0  0  0  0  0  0  0
  138.7453  149.4536  140.7011 C   0  0  0  0  0  0  0  0  0  0  0  0
  138.3245  148.6198  139.5102 C   0  0  0  0  0  0  0  0  0  0  0  0
  138.1863  150.0155  142.6588 C   0  0  0  0  0  0  0  0  0  0  0  0
  137.4867  149.6116  143.8170 C   0  0  0  0  0  0  0  0  0  0  0  0
  138.0378  149.2118  141.8039 N   0  0  0  0  0  0  0  0  0  0  0  0
  1  2  1  0
  1  3  1  0
  2  4  1  0
  4  5  2  0
  3  6  2  0
  6  7  1  0
  7  8  1  0
  1  9  2  0
  5 10  1  0
  9 10  1  0
  7 11  2  0
  9 11  1  0
M  END
$$$$

     RDKit          3D

 11 12  0  0  0  0  0  0  0  0999 V2000
  138.7240  151.5758  143.3184 C   0  0  0  0  0  0  0  0  0  0  0  0
  137.9193  152.3258  143.7536 C   0  0  0  0  0  0  0  0  0  0  0  0
  136.7526  151.8075  144.4391 C   0  0  0  0  0  0  0  0  0  0  0  0
  136.7825  150.4607  144.6808 C   0  0  0  0  0  0  0  0  0  0  0  0
  135.8633  152.6144  145.2382 C   0  0  0  0  0  0  0  0  0  0  0  0
  138.4720  150.1666  143.2072 C   0  0  0  0  0  0  0  0  0  0  0  0
  135.9938  153.8877  145.3789 C   0  0  0  0  0  0  0  0  0  0  0  0
  134.7465  151.9838  145.8269 C   0  0  0  0  0  0  0  0  0  0  0  0
  135.8311  149.9247  145.6219 C   0  0  0  0  0  0  0  0  0  0  0  0
  134.9028  150.6554  146.2292 C   0  0  0  0  0  0  0  0  0  0  0  0
  137.6720  149.6578  143.9767 N   0  0  0  0  0  0  0  0  0  0  0  0
  1  2  1  0
  2  3  2  0
  3  4  1  0
  3  5  1  0
  1  6  2  0
  5  7  1  0
  5  8  2  0
  4  9  1  0
  8 10  1  0
  9 10  2  0
  4 11  2  0
  6 11  1  0
M  END
$$$$

     RDKit          3D

 11 12  0  0  0  0  0  0  0  0999 V2000
  139.2620  151.0921  142.4039 C   0  0  0  0  0  0  0  0  0  0  0  0
  138.8618  152.1315  142.9023 C   0  0  0  0  0  0  0  0  0  0  0  0
  137.9130  151.7995  143.7812 C   0  0  0  0  0  0  0  0  0  0  0  0
  138.8259  150.3979  141.6057 C   0  0  0  0  0  0  0  0  0  0  0  0
  137.6638  149.9538  141.7688 C   0  0  0  0  0  0  0  0  0  0  0  0
  137.5091  152.6033  144.9557 C   0  0  0  0  0  0  0  0  0  0  0  0
  136.8131  150.7653  143.7756 C   0  0  0  0  0  0  0  0  0  0  0  0
  135.9244  150.8037  144.8950 C   0  0  0  0  0  0  0  0  0  0  0  0
  136.9542  149.4283  140.5394 C   0  0  0  0  0  0  0  0  0  0  0  0
  136.7646  150.1345  142.6376 N   0  0  0  0  0  0  0  0  0  0  0  0
  136.2482  151.8259  145.6398 C   0  0  0  0  0  0  0  0  0  0  0  0
  1  2  1  0
  2  3  2  0
  1  4  2  0
  4  5  1  0
  3  6  1  0
  3  7  1  0
  7  8  2  0
  5  9  1  0
  5 10  2  0
  7 10  1  0
  6 11  2  0
  8 11  1  0
M  END
$$$$

     RDKit          3D

 11 12  0  0  0  0  0  0  0  0999 V2000
  138.9697  151.3146  142.5684 C   0  0  0  0  0  0  0  0  0  0  0  0
  138.6018  152.0883  143.2657 C   0  0  0  0  0  0  0  0  0  0  0  0
  139.7627  151.4691  141.3553 C   0  0  0  0  0  0  0  0  0  0  0  0
  137.5394  151.8374  144.3779 C   0  0  0  0  0  0  0  0  0  0  0  0
  137.4014  150.5805  144.6885 C   0  0  0  0  0  0  0  0  0  0  0  0
  139.6225  150.4855  140.3438 C   0  0  0  0  0  0  0  0  0  0  0  0
  138.7453  149.4536  140.7011 C   0  0  0  0  0  0  0  0  0  0  0  0
  137.7953  149.6232  141.6587 C   0  0  0  0  0  0  0  0  0  0  0  0
  138.0142  150.4015  142.7570 C   0  0  0  0  0  0  0  0  0  0  0  0
  137.3920  149.8787  143.6934 N   0  0  0  0  0  0  0  0  0  0  0  0
  140.5318  150.5627  139.1193 C   0  0  0  0  0  0  0  0  0  0  0  0
  1  2  1  0
  1  3  1  0
  2  4  1  0
  4  5  2  0
  3  6  2  0
  6  7  1  0
  7  8  2  0
  1  9  2  0
  8  9  1  0
  5 10  1  0
  9 10  1  0
  6 11  1  0
M  END
$$$$

     RDKit          3D

 11 11  0  0  0  0  0  0  0  0999 V2000
  138.7240  151.5758  143.3184 C   0  0  0  0  0  0  0  0  0  0  0  0
  137.9193  152.3258  143.7536 C   0  0  0  0  0  0  0  0  0  0  0  0
  136.7526  151.8075  144.4391 C   0  0  0  0  0  0  0  0  0  0  0  0
  138.5730  150.7616  142.3607 C   0  0  0  0  0  0  0  0  0  0  0  0
  137.2365  150.1146  142.4832 C   0  0  0  0  0  0  0  0  0  0  0  0
  136.3128  150.6161  143.4674 C   0  0  0  0  0  0  0  0  0  0  0  0
  135.7786  152.3692  145.2464 C   0  0  0  0  0  0  0  0  0  0  0  0
  139.5235  150.0434  141.3321 C   0  0  0  0  0  0  0  0  0  0  0  0
  134.9722  151.6645  145.9828 C   0  0  0  0  0  0  0  0  0  0  0  0
  135.8114  153.7482  145.3787 C   0  0  0  0  0  0  0  0  0  0  0  0
  135.1644  154.3074  146.4313 C   0  0  0  0  0  0  0  0  0  0  0  0
  1  2  1  0
  2  3  2  0
  1  4  2  0
  4  5  1  0
  3  6  1  0
  5  6  2  0
  3  7  1  0
  4  8  1  0
  7  9  1  0
  7 10  2  3
 10 11  1  0
M  END
$$$$

     RDKit          3D

 11 12  0  0  0  0  0  0  0  0999 V2000
  139.3428  149.9936  140.5898 C   0  0  0  0  0  0  0  0  0  0  0  0
  138.9752  149.9369  139.3605 C   0  0  0  0  0  0  0  0  0  0  0  0
  138.5862  150.0774  141.6376 C   0  0  0  0  0  0  0  0  0  0  0  0
  137.6061  149.8652  139.0267 C   0  0  0  0  0  0  0  0  0  0  0  0
  137.1311  149.9324  141.4833 C   0  0  0  0  0  0  0  0  0  0  0  0
  136.2248  150.0770  142.5714 C   0  0  0  0  0  0  0  0  0  0  0  0
  136.7547  150.9539  143.4667 C   0  0  0  0  0  0  0  0  0  0  0  0
  136.5804  149.7890  140.0752 C   0  0  0  0  0  0  0  0  0  0  0  0
  137.7599  151.8265  143.3560 C   0  0  0  0  0  0  0  0  0  0  0  0
  135.8806  151.0934  144.8005 C   0  0  0  0  0  0  0  0  0  0  0  0
  138.9042  151.3855  142.7056 C   0  0  0  0  0  0  0  0  0  0  0  0
  1  2  2  0
  1  3  1  0
  2  4  1  0
  3  5  2  0
  5  6  1  0
  6  7  1  0
  4  8  2  0
  5  8  1  0
  7  9  2  0
  7 10  1  0
  3 11  1  0
  9 11  1  0
M  END
$$$$

     RDKit          3D

 11 12  0  0  0  0  0  0  0  0999 V2000
  139.2620  151.0921  142.4039 C   0  0  0  0  0  0  0  0  0  0  0  0
  138.8618  152.1315  142.9023 C   0  0  0  0  0  0  0  0  0  0  0  0
  137.9130  151.7995  143.7812 C   0  0  0  0  0  0  0  0  0  0  0  0
  138.8259  150.3979  141.6057 C   0  0  0  0  0  0  0  0  0  0  0  0
  137.6638  149.9538  141.7688 C   0  0  0  0  0  0  0  0  0  0  0  0
  137.5091  152.6033  144.9557 C   0  0  0  0  0  0  0  0  0  0  0  0
  136.8131  150.7653  143.7756 C   0  0  0  0  0  0  0  0  0  0  0  0
  136.7050  150.0802  142.7142 C   0  0  0  0  0  0  0  0  0  0  0  0
  136.2312  152.8787  145.1974 C   0  0  0  0  0  0  0  0  0  0  0  0
  135.3045  151.8431  145.1497 C   0  0  0  0  0  0  0  0  0  0  0  0
  135.7057  150.6839  144.6701 C   0  0  0  0  0  0  0  0  0  0  0  0
  1  2  1  0
  2  3  2  0
  1  4  2  0
  4  5  1  0
  3  6  1  0
  3  7  1  0
  5  8  1  0
  7  8  1  0
  6  9  2  0
  9 10  1  0
  7 11  1  0
 10 11  1  0
M  END
$$$$

     RDKit          3D

 11 12  0  0  0  0  0  0  0  0999 V2000
  138.7086  151.1469  142.6266 C   0  0  0  0  0  0  0  0  0  0  0  0
  138.5250  151.9368  143.5112 C   0  0  0  0  0  0  0  0  0  0  0  0
  137.3811  151.6572  144.3961 C   0  0  0  0  0  0  0  0  0  0  0  0
  139.7008  151.1089  141.6121 C   0  0  0  0  0  0  0  0  0  0  0  0
  136.7115  150.4275  144.0247 C   0  0  0  0  0  0  0  0  0  0  0  0
  137.9015  150.0212  142.3179 C   0  0  0  0  0  0  0  0  0  0  0  0
  138.2227  149.2897  141.1482 C   0  0  0  0  0  0  0  0  0  0  0  0
  136.8382  152.3621  145.4464 C   0  0  0  0  0  0  0  0  0  0  0  0
  137.0338  149.6736  142.9427 N   0  0  0  0  0  0  0  0  0  0  0  0
  135.5311  152.2266  145.9050 C   0  0  0  0  0  0  0  0  0  0  0  0
  139.0287  150.0775  140.4218 C   0  0  0  0  0  0  0  0  0  0  0  0
  1  2  1  0
  2  3  2  0
  1  4  1  0
  3  5  1  0
  1  6  2  0
  6  7  1  0
  3  8  1  0
  5  9  2  0
  6  9  1  0
  8 10  1  0
  4 11  2  0
  7 11  1  0
M  END
$$$$

     RDKit          3D

 11 11  0  0  0  0  0  0  0  0999 V2000
  140.3019  150.2145  139.4802 Cl  0  0  0  0  0  0  0  0  0  0  0  0
  138.6758  150.1820  140.5311 C   0  0  0  0  0  0  0  0  0  0  0  0
  137.6364  149.3800  140.0902 C   0  0  0  0  0  0  0  0  0  0  0  0
  139.0293  150.8783  141.6179 C   0  0  0  0  0  0  0  0  0  0  0  0
  136.4821  149.4702  141.0029 C   0  0  0  0  0  0  0  0  0  0  0  0
  136.5997  150.3282  142.1426 C   0  0  0  0  0  0  0  0  0  0  0  0
  135.4514  150.4834  143.0679 C   0  0  0  0  0  0  0  0  0  0  0  0
  135.8625  151.2504  144.3029 C   0  0  0  0  0  0  0  0  0  0  0  0
  134.8669  151.8789  145.0890 C   0  0  0  0  0  0  0  0  0  0  0  0
  135.2761  152.5812  146.2098 C   0  0  0  0  0  0  0  0  0  0  0  0
  137.9092  150.9592  142.4208 C   0  0  0  0  0  0  0  0  0  0  0  0
  1  2  1  0
  2  3  2  0
  2  4  1  0
  3  5  1  0
  5  6  2  0
  6  7  1  0
  7  8  1  0
  8  9  1  0
  9 10  1  0
  4 11  2  0
  6 11  1  0
M  END
$$$$

     RDKit          3D

 11 12  0  0  0  0  0  0  0  0999 V2000
  139.3428  149.9936  140.5898 C   0  0  0  0  0  0  0  0  0  0  0  0
  138.9752  149.9369  139.3605 C   0  0  0  0  0  0  0  0  0  0  0  0
  138.5862  150.0774  141.6376 C   0  0  0  0  0  0  0  0  0  0  0  0
  137.2156  149.9043  141.8335 C   0  0  0  0  0  0  0  0  0  0  0  0
  136.5021  149.8247  140.5813 C   0  0  0  0  0  0  0  0  0  0  0  0
  139.1845  150.3562  143.1502 C   0  0  0  0  0  0  0  0  0  0  0  0
  138.3557  151.1252  143.9047 C   0  0  0  0  0  0  0  0  0  0  0  0
  136.5232  150.1791  143.0233 C   0  0  0  0  0  0  0  0  0  0  0  0
  137.5407  149.7046  139.0554 C   0  0  0  0  0  0  0  0  0  0  0  0
  137.0643  150.7677  144.0388 C   0  0  0  0  0  0  0  0  0  0  0  0
  136.2362  151.1763  145.3932 C   0  0  0  0  0  0  0  0  0  0  0  0
  1  2  2  0
  1  3  1  0
  3  4  1  0
  4  5  2  0
  3  6  1  0
  6  7  2  0
  4  8  1  0
  2  9  1  0
  5  9  1  0
  7 10  1  0
  8 10  2  0
 10 11  1  0
M  END
$$$$

     RDKit          3D

 11 12  0  0  0  0  0  0  0  0999 V2000
  139.2620  151.0921  142.4039 C   0  0  0  0  0  0  0  0  0  0  0  0
  138.8618  152.1315  142.9023 C   0  0  0  0  0  0  0  0  0  0  0  0
  137.9130  151.7995  143.7812 C   0  0  0  0  0  0  0  0  0  0  0  0
  138.7614  149.7943  142.5265 C   0  0  0  0  0  0  0  0  0  0  0  0
  137.2974  152.8737  144.6385 C   0  0  0  0  0  0  0  0  0  0  0  0
  137.4402  150.4143  143.9194 C   0  0  0  0  0  0  0  0  0  0  0  0
  135.9792  152.6812  145.1315 C   0  0  0  0  0  0  0  0  0  0  0  0
  136.4191  150.3072  145.0115 C   0  0  0  0  0  0  0  0  0  0  0  0
  137.9148  149.4613  143.4218 N   0  0  0  0  0  0  0  0  0  0  0  0
  135.6914  151.3863  145.5872 C   0  0  0  0  0  0  0  0  0  0  0  0
  135.2002  153.6975  145.3826 O   0  0  0  0  0  0  0  0  0  0  0  0
  1  2  1  0
  2  3  2  0
  1  4  2  0
  3  5  1  0
  3  6  1  0
  5  7  1  0
  6  8  1  0
  4  9  1  0
  6  9  2  0
  7 10  1  0
  8 10  2  0
  7 11  2  0
M  END
$$$$

     RDKit          3D

 11 12  0  0  0  0  0  0  0  0999 V2000
  139.5550  150.5075  140.4438 C   0  0  0  0  0  0  0  0  0  0  0  0
  139.2165  150.0149  139.3725 C   0  0  0  0  0  0  0  0  0  0  0  0
  138.8581  150.3072  141.5852 C   0  0  0  0  0  0  0  0  0  0  0  0
  139.2270  150.3459  142.8891 C   0  0  0  0  0  0  0  0  0  0  0  0
  138.5608  151.2821  143.6742 C   0  0  0  0  0  0  0  0  0  0  0  0
  137.8570  149.4552  139.3184 C   0  0  0  0  0  0  0  0  0  0  0  0
  137.1663  149.5188  140.5135 C   0  0  0  0  0  0  0  0  0  0  0  0
  137.3622  151.4929  143.6726 C   0  0  0  0  0  0  0  0  0  0  0  0
  137.4449  150.0606  141.5082 C   0  0  0  0  0  0  0  0  0  0  0  0
  136.5693  150.6288  142.6589 C   0  0  0  0  0  0  0  0  0  0  0  0
  136.5750  151.7960  144.7018 O   0  0  0  0  0  0  0  0  0  0  0  0
  1  2  2  0
  1  3  1  0
  3  4  1  0
  4  5  2  0
  2  6  1  0
  6  7  2  0
  5  8  1  0
  3  9  2  0
  7  9  1  0
  8 10  1  0
  9 10  1  0
  8 11  1  0
M  END
$$$$

     RDKit          3D

 11 11  0  0  0  0  0  0  0  0999 V2000
  139.3428  149.9936  140.5898 C   0  0  0  0  0  0  0  0  0  0  0  0
  138.9752  149.9369  139.3605 C   0  0  0  0  0  0  0  0  0  0  0  0
  138.5862  150.0774  141.6376 C   0  0  0  0  0  0  0  0  0  0  0  0
  137.6061  149.8652  139.0267 C   0  0  0  0  0  0  0  0  0  0  0  0
  137.1311  149.9324  141.4833 C   0  0  0  0  0  0  0  0  0  0  0  0
  137.0443  149.6341  137.7975 C   0  0  0  0  0  0  0  0  0  0  0  0
  136.2646  150.0723  142.6719 C   0  0  0  0  0  0  0  0  0  0  0  0
  136.5327  149.7871  140.1535 C   0  0  0  0  0  0  0  0  0  0  0  0
  135.5405  151.0032  142.9844 C   0  0  0  0  0  0  0  0  0  0  0  0
  135.3209  151.3649  144.4897 C   0  0  0  0  0  0  0  0  0  0  0  0
  136.4692  151.0691  145.2684 C   0  0  0  0  0  0  0  0  0  0  0  0
  1  2  2  0
  1  3  1  0
  2  4  1  0
  3  5  2  0
  4  6  1  0
  5  7  1  0
  4  8  2  0
  5  8  1  0
  7  9  1  0
  9 10  1  0
 10 11  1  0
M  END
$$$$

     RDKit          3D

 11 12  0  0  0  0  0  0  0  0999 V2000
  138.7086  151.1469  142.6266 C   0  0  0  0  0  0  0  0  0  0  0  0
  138.5250  151.9368  143.5112 C   0  0  0  0  0  0  0  0  0  0  0  0
  137.3811  151.6572  144.3961 C   0  0  0  0  0  0  0  0  0  0  0  0
  139.7008  151.1089  141.6121 C   0  0  0  0  0  0  0  0  0  0  0  0
  136.7115  150.4275  144.0247 C   0  0  0  0  0  0  0  0  0  0  0  0
  137.9015  150.0212  142.3179 C   0  0  0  0  0  0  0  0  0  0  0  0
  138.2227  149.2897  141.1482 C   0  0  0  0  0  0  0  0  0  0  0  0
  136.8382  152.3621  145.4464 C   0  0  0  0  0  0  0  0  0  0  0  0
  135.5638  152.4394  145.6446 C   0  0  0  0  0  0  0  0  0  0  0  0
  136.8747  149.7821  143.1509 N   0  0  0  0  0  0  0  0  0  0  0  0
  138.9857  150.0720  140.4558 C   0  0  0  0  0  0  0  0  0  0  0  0
  1  2  1  0
  2  3  2  0
  1  4  1  0
  3  5  1  0
  1  6  2  0
  6  7  1  0
  3  8  1  0
  8  9  1  0
  5 10  2  0
  6 10  1  0
  4 11  1  0
  7 11  2  0
M  END
$$$$

     RDKit          3D

 11 12  0  0  0  0  0  0  0  0999 V2000
  138.9697  151.3146  142.5684 C   0  0  0  0  0  0  0  0  0  0  0  0
  138.6018  152.0883  143.2657 C   0  0  0  0  0  0  0  0  0  0  0  0
  137.6687  151.8115  144.0583 C   0  0  0  0  0  0  0  0  0  0  0  0
  138.4238  149.9019  142.6316 C   0  0  0  0  0  0  0  0  0  0  0  0
  137.0853  152.8322  145.0064 C   0  0  0  0  0  0  0  0  0  0  0  0
  135.8131  152.6633  145.6298 C   0  0  0  0  0  0  0  0  0  0  0  0
  135.2593  151.3554  145.2720 C   0  0  0  0  0  0  0  0  0  0  0  0
  136.9783  150.4452  144.0889 C   0  0  0  0  0  0  0  0  0  0  0  0
  137.4681  149.6636  143.3833 C   0  0  0  0  0  0  0  0  0  0  0  0
  133.9829  151.2320  145.9626 C   0  0  0  0  0  0  0  0  0  0  0  0
  135.7894  150.3026  144.8448 N   0  0  0  0  0  0  0  0  0  0  0  0
  1  2  2  0
  2  3  1  0
  1  4  1  0
  3  5  1  0
  5  6  2  0
  6  7  1  0
  3  8  2  0
  4  9  2  0
  8  9  1  0
  7 10  1  0
  7 11  2  0
  8 11  1  0
M  END
$$$$

     RDKit          3D

 11 11  0  0  0  0  0  0  0  0999 V2000
  139.2620  151.0921  142.4039 C   0  0  0  0  0  0  0  0  0  0  0  0
  138.8618  152.1315  142.9023 C   0  0  0  0  0  0  0  0  0  0  0  0
  137.9130  151.7995  143.7812 C   0  0  0  0  0  0  0  0  0  0  0  0
  138.8259  150.3979  141.6057 C   0  0  0  0  0  0  0  0  0  0  0  0
  137.6638  149.9538  141.7688 C   0  0  0  0  0  0  0  0  0  0  0  0
  136.7250  151.0112  143.4740 C   0  0  0  0  0  0  0  0  0  0  0  0
  136.5486  150.2645  142.7010 C   0  0  0  0  0  0  0  0  0  0  0  0
  135.6014  151.4064  144.6451 C   0  0  0  0  0  0  0  0  0  0  0  0
  139.6081  149.6337  140.4145 C   0  0  0  0  0  0  0  0  0  0  0  0
  140.8131  150.0858  140.0916 C   0  0  0  0  0  0  0  0  0  0  0  0
  140.8834  150.7567  138.8534 C   0  0  0  0  0  0  0  0  0  0  0  0
  1  2  1  0
  2  3  2  0
  1  4  2  0
  4  5  1  0
  3  6  1  0
  5  7  1  0
  6  7  2  0
  6  8  1  0
  4  9  1  0
  9 10  1  0
 10 11  1  0
M  END
$$$$

     RDKit          3D

 11 12  0  0  0  0  0  0  0  0999 V2000
  138.7086  151.1469  142.6266 C   0  0  0  0  0  0  0  0  0  0  0  0
  138.5250  151.9368  143.5112 C   0  0  0  0  0  0  0  0  0  0  0  0
  137.3811  151.6572  144.3961 C   0  0  0  0  0  0  0  0  0  0  0  0
  139.7008  151.1089  141.6121 C   0  0  0  0  0  0  0  0  0  0  0  0
  139.6260  150.4243  140.3624 C   0  0  0  0  0  0  0  0  0  0  0  0
  138.4083  149.6133  140.3617 C   0  0  0  0  0  0  0  0  0  0  0  0
  137.5986  150.0970  142.5687 C   0  0  0  0  0  0  0  0  0  0  0  0
  137.3381  149.4864  141.3450 C   0  0  0  0  0  0  0  0  0  0  0  0
  136.8391  150.3238  143.7498 C   0  0  0  0  0  0  0  0  0  0  0  0
  136.8733  152.1847  145.5517 C   0  0  0  0  0  0  0  0  0  0  0  0
  140.6559  150.4681  139.2997 C   0  0  0  0  0  0  0  0  0  0  0  0
  1  2  1  0
  2  3  2  0
  1  4  1  0
  4  5  2  0
  5  6  1  0
  1  7  2  0
  6  8  2  0
  7  8  1  0
  3  9  1  0
  7  9  1  0
  3 10  1  0
  5 11  1  0
M  END
$$$$

     RDKit          3D

 11 11  0  0  0  0  0  0  0  0999 V2000
  138.7240  151.5758  143.3184 C   0  0  0  0  0  0  0  0  0  0  0  0
  137.9193  152.3258  143.7536 C   0  0  0  0  0  0  0  0  0  0  0  0
  136.7526  151.8075  144.4391 C   0  0  0  0  0  0  0  0  0  0  0  0
  136.7825  150.4607  144.6808 C   0  0  0  0  0  0  0  0  0  0  0  0
  135.8633  152.6144  145.2382 C   0  0  0  0  0  0  0  0  0  0  0  0
  138.4720  150.1666  143.2072 C   0  0  0  0  0  0  0  0  0  0  0  0
  135.9938  153.8877  145.3789 C   0  0  0  0  0  0  0  0  0  0  0  0
  134.7465  151.9838  145.8269 C   0  0  0  0  0  0  0  0  0  0  0  0
  133.8318  152.6822  146.4933 C   0  0  0  0  0  0  0  0  0  0  0  0
  139.3566  149.2750  142.4829 C   0  0  0  0  0  0  0  0  0  0  0  0
  137.4675  149.5977  143.9922 N   0  0  0  0  0  0  0  0  0  0  0  0
  1  2  1  0
  2  3  2  0
  3  4  1  0
  3  5  1  0
  1  6  2  0
  5  7  1  0
  5  8  2  3
  8  9  1  0
  6 10  1  0
  4 11  2  0
  6 11  1  0
M  END
$$$$

     RDKit          3D

 11 11  0  0  0  0  0  0  0  0999 V2000
  140.3019  150.2145  139.4802 Cl  0  0  0  0  0  0  0  0  0  0  0  0
  138.6758  150.1820  140.5311 C   0  0  0  0  0  0  0  0  0  0  0  0
  137.6364  149.3800  140.0902 C   0  0  0  0  0  0  0  0  0  0  0  0
  138.8645  150.7144  141.4528 C   0  0  0  0  0  0  0  0  0  0  0  0
  136.5623  149.5846  140.7692 C   0  0  0  0  0  0  0  0  0  0  0  0
  136.4105  150.3672  141.9090 C   0  0  0  0  0  0  0  0  0  0  0  0
  137.5948  151.0062  142.3502 C   0  0  0  0  0  0  0  0  0  0  0  0
  137.6180  151.7680  143.5884 C   0  0  0  0  0  0  0  0  0  0  0  0
  136.5889  151.6632  144.4906 C   0  0  0  0  0  0  0  0  0  0  0  0
  136.2244  152.8446  145.3048 C   0  0  0  0  0  0  0  0  0  0  0  0
  135.1359  152.7737  146.2185 C   0  0  0  0  0  0  0  0  0  0  0  0
  1  2  1  0
  2  3  2  0
  2  4  1  0
  3  5  1  0
  5  6  2  0
  4  7  2  0
  6  7  1  0
  7  8  1  0
  8  9  1  0
  9 10  1  0
 10 11  1  0
M  END
$$$$

     RDKit          3D

 11 11  0  0  0  0  0  0  0  0999 V2000
  140.3019  150.2145  139.4802 Cl  0  0  0  0  0  0  0  0  0  0  0  0
  138.6758  150.1820  140.5311 C   0  0  0  0  0  0  0  0  0  0  0  0
  137.6364  149.3800  140.0902 C   0  0  0  0  0  0  0  0  0  0  0  0
  138.7467  150.9432  141.6725 C   0  0  0  0  0  0  0  0  0  0  0  0
  136.4509  149.4140  140.9182 C   0  0  0  0  0  0  0  0  0  0  0  0
  136.3992  150.2735  142.0399 C   0  0  0  0  0  0  0  0  0  0  0  0
  135.2012  150.3776  142.8900 C   0  0  0  0  0  0  0  0  0  0  0  0
  135.4919  151.1585  144.1418 C   0  0  0  0  0  0  0  0  0  0  0  0
  137.6430  150.9771  142.4933 C   0  0  0  0  0  0  0  0  0  0  0  0
  134.4453  151.4614  145.0376 C   0  0  0  0  0  0  0  0  0  0  0  0
  134.8511  152.3714  146.2020 C   0  0  0  0  0  0  0  0  0  0  0  0
  1  2  1  0
  2  3  2  0
  2  4  1  0
  3  5  1  0
  5  6  2  0
  6  7  1  0
  7  8  2  3
  4  9  2  0
  6  9  1  0
  8 10  1  0
 10 11  1  0
M  END
$$$$

     RDKit          3D

 11 12  0  0  0  0  0  0  0  0999 V2000
  138.7086  151.1469  142.6266 C   0  0  0  0  0  0  0  0  0  0  0  0
  138.5250  151.9368  143.5112 C   0  0  0  0  0  0  0  0  0  0  0  0
  137.3811  151.6572  144.3961 C   0  0  0  0  0  0  0  0  0  0  0  0
  139.7008  151.1089  141.6121 C   0  0  0  0  0  0  0  0  0  0  0  0
  139.6260  150.4243  140.3624 C   0  0  0  0  0  0  0  0  0  0  0  0
  138.4083  149.6133  140.3617 C   0  0  0  0  0  0  0  0  0  0  0  0
  137.5986  150.0970  142.5687 C   0  0  0  0  0  0  0  0  0  0  0  0
  138.0177  149.0116  139.1506 C   0  0  0  0  0  0  0  0  0  0  0  0
  136.8139  150.0948  143.7198 C   0  0  0  0  0  0  0  0  0  0  0  0
  137.3881  149.3191  141.3965 C   0  0  0  0  0  0  0  0  0  0  0  0
  136.9337  152.2323  145.5267 C   0  0  0  0  0  0  0  0  0  0  0  0
  1  2  1  0
  2  3  2  0
  1  4  1  0
  4  5  2  0
  5  6  1  0
  1  7  2  0
  6  8  1  0
  3  9  1  0
  7  9  1  0
  6 10  2  0
  7 10  1  0
  3 11  1  0
M  END
$$$$

     RDKit          3D

 11 11  0  0  0  0  0  0  0  0999 V2000
  140.3019  150.2145  139.4802 Cl  0  0  0  0  0  0  0  0  0  0  0  0
  138.6758  150.1820  140.5311 C   0  0  0  0  0  0  0  0  0  0  0  0
  137.6364  149.3800  140.0902 C   0  0  0  0  0  0  0  0  0  0  0  0
  138.7467  150.9432  141.6725 C   0  0  0  0  0  0  0  0  0  0  0  0
  137.7505  150.8693  142.6256 C   0  0  0  0  0  0  0  0  0  0  0  0
  136.5540  149.5179  140.9615 C   0  0  0  0  0  0  0  0  0  0  0  0
  137.8486  151.5544  143.9015 C   0  0  0  0  0  0  0  0  0  0  0  0
  136.5632  150.2244  142.1903 C   0  0  0  0  0  0  0  0  0  0  0  0
  136.7362  151.5121  144.7513 C   0  0  0  0  0  0  0  0  0  0  0  0
  136.1995  152.7776  145.2789 C   0  0  0  0  0  0  0  0  0  0  0  0
  136.8649  153.8321  145.4069 C   0  0  0  0  0  0  0  0  0  0  0  0
  1  2  1  0
  2  3  2  0
  2  4  1  0
  4  5  2  0
  3  6  1  0
  5  7  1  0
  5  8  1  0
  6  8  2  0
  7  9  1  0
  9 10  1  0
 10 11  2  0
M  END
$$$$

     RDKit          3D

 11 11  0  0  0  0  0  0  0  0999 V2000
  138.7086  151.1469  142.6266 C   0  0  0  0  0  0  0  0  0  0  0  0
  138.5250  151.9368  143.5112 C   0  0  0  0  0  0  0  0  0  0  0  0
  137.3811  151.6572  144.3961 C   0  0  0  0  0  0  0  0  0  0  0  0
  139.7008  151.1089  141.6121 C   0  0  0  0  0  0  0  0  0  0  0  0
  139.6260  150.4243  140.3624 C   0  0  0  0  0  0  0  0  0  0  0  0
  138.4083  149.6133  140.3617 C   0  0  0  0  0  0  0  0  0  0  0  0
  137.5986  150.0970  142.5687 C   0  0  0  0  0  0  0  0  0  0  0  0
  137.3381  149.4864  141.3450 C   0  0  0  0  0  0  0  0  0  0  0  0
  140.5525  150.4850  139.3959 C   0  0  0  0  0  0  0  0  0  0  0  0
  136.9923  152.6671  145.4046 C   0  0  0  0  0  0  0  0  0  0  0  0
  135.6891  152.5897  145.9675 C   0  0  0  0  0  0  0  0  0  0  0  0
  1  2  1  0
  2  3  2  3
  1  4  1  0
  4  5  2  0
  5  6  1  0
  1  7  2  0
  6  8  2  0
  7  8  1  0
  5  9  1  0
  3 10  1  0
 10 11  1  0
M  END
$$$$

     RDKit          3D

 11 11  0  0  0  0  0  0  0  0999 V2000
  138.9697  151.3146  142.5684 C   0  0  0  0  0  0  0  0  0  0  0  0
  138.6018  152.0883  143.2657 C   0  0  0  0  0  0  0  0  0  0  0  0
  137.6374  151.6902  144.0814 C   0  0  0  0  0  0  0  0  0  0  0  0
  140.0289  151.3257  141.4197 C   0  0  0  0  0  0  0  0  0  0  0  0
  138.3155  150.1048  142.4750 C   0  0  0  0  0  0  0  0  0  0  0  0
  137.1598  150.7310  144.0930 C   0  0  0  0  0  0  0  0  0  0  0  0
  137.1339  152.9250  145.1305 C   0  0  0  0  0  0  0  0  0  0  0  0
  136.1549  150.2313  145.1914 C   0  0  0  0  0  0  0  0  0  0  0  0
  137.4789  149.7109  143.2614 N   0  0  0  0  0  0  0  0  0  0  0  0
  140.0896  150.7149  140.2068 C   0  0  0  0  0  0  0  0  0  0  0  0
  140.2171  151.1112  139.0242 C   0  0  0  0  0  0  0  0  0  0  0  0
  1  2  1  0
  2  3  2  0
  1  4  1  0
  1  5  2  0
  3  6  1  0
  3  7  1  0
  6  8  1  0
  5  9  1  0
  6  9  2  0
  4 10  2  3
 10 11  1  0
M  END
$$$$

     RDKit          3D

 11 11  0  0  0  0  0  0  0  0999 V2000
  138.9697  151.3146  142.5684 C   0  0  0  0  0  0  0  0  0  0  0  0
  138.6018  152.0883  143.2657 C   0  0  0  0  0  0  0  0  0  0  0  0
  137.4864  151.7371  144.1980 C   0  0  0  0  0  0  0  0  0  0  0  0
  139.9864  151.4011  141.4219 C   0  0  0  0  0  0  0  0  0  0  0  0
  136.7358  152.5376  145.0264 C   0  0  0  0  0  0  0  0  0  0  0  0
  139.7034  150.7343  140.1991 C   0  0  0  0  0  0  0  0  0  0  0  0
  137.0180  153.8817  145.0034 C   0  0  0  0  0  0  0  0  0  0  0  0
  135.6277  152.1340  145.3254 C   0  0  0  0  0  0  0  0  0  0  0  0
  138.5726  149.8410  140.3380 C   0  0  0  0  0  0  0  0  0  0  0  0
  138.0662  150.1971  142.2107 C   0  0  0  0  0  0  0  0  0  0  0  0
  137.7786  149.5479  141.2943 C   0  0  0  0  0  0  0  0  0  0  0  0
  1  2  1  0
  2  3  2  3
  1  4  1  0
  3  5  1  0
  4  6  2  0
  5  7  1  0
  5  8  2  0
  6  9  1  0
  1 10  2  0
  9 11  2  0
 10 11  1  0
M  END
$$$$

     RDKit          3D

 11 12  0  0  0  0  0  0  0  0999 V2000
  138.9697  151.3146  142.5684 C   0  0  0  0  0  0  0  0  0  0  0  0
  138.6018  152.0883  143.2657 C   0  0  0  0  0  0  0  0  0  0  0  0
  137.6687  151.8115  144.0583 C   0  0  0  0  0  0  0  0  0  0  0  0
  139.9926  151.3705  141.4268 C   0  0  0  0  0  0  0  0  0  0  0  0
  137.5512  150.6294  144.9277 C   0  0  0  0  0  0  0  0  0  0  0  0
  139.6588  150.7358  140.2572 C   0  0  0  0  0  0  0  0  0  0  0  0
  138.5025  150.0408  140.2323 C   0  0  0  0  0  0  0  0  0  0  0  0
  137.6103  149.8214  141.4294 C   0  0  0  0  0  0  0  0  0  0  0  0
  137.9847  150.3939  142.6050 C   0  0  0  0  0  0  0  0  0  0  0  0
  137.4845  150.0083  143.7704 N   0  0  0  0  0  0  0  0  0  0  0  0
  140.7214  150.8378  139.1731 C   0  0  0  0  0  0  0  0  0  0  0  0
  1  2  2  0
  2  3  1  0
  1  4  1  0
  3  5  2  0
  4  6  2  0
  6  7  1  0
  7  8  1  0
  1  9  1  0
  8  9  2  0
  5 10  1  0
  9 10  1  0
  6 11  1  0
M  END
$$$$

     RDKit          3D

 11 11  0  0  0  0  0  0  0  0999 V2000
  139.0010  149.7643  140.3643 C   0  0  0  0  0  0  0  0  0  0  0  0
  138.7144  149.5449  139.1247 C   0  0  0  0  0  0  0  0  0  0  0  0
  138.1840  150.1020  141.2852 C   0  0  0  0  0  0  0  0  0  0  0  0
  137.3200  149.5871  138.6815 C   0  0  0  0  0  0  0  0  0  0  0  0
  136.4668  149.5647  139.6600 C   0  0  0  0  0  0  0  0  0  0  0  0
  138.6203  150.4924  142.6513 C   0  0  0  0  0  0  0  0  0  0  0  0
  137.7616  150.9851  143.6296 C   0  0  0  0  0  0  0  0  0  0  0  0
  136.4770  150.9768  143.2092 C   0  0  0  0  0  0  0  0  0  0  0  0
  135.5254  151.4160  144.2399 C   0  0  0  0  0  0  0  0  0  0  0  0
  136.7403  150.0044  140.9819 C   0  0  0  0  0  0  0  0  0  0  0  0
  135.9459  151.8736  145.3555 O   0  0  0  0  0  0  0  0  0  0  0  0
  1  2  2  0
  1  3  1  0
  2  4  1  0
  4  5  2  0
  3  6  1  0
  6  7  2  3
  7  8  1  0
  8  9  1  0
  3 10  2  0
  5 10  1  0
  9 11  2  0
M  END
$$$$

     RDKit          3D

 11 12  0  0  0  0  0  0  0  0999 V2000
  138.9697  151.3146  142.5684 C   0  0  0  0  0  0  0  0  0  0  0  0
  138.6018  152.0883  143.2657 C   0  0  0  0  0  0  0  0  0  0  0  0
  137.4864  151.7371  144.1980 C   0  0  0  0  0  0  0  0  0  0  0  0
  139.9864  151.4011  141.4219 C   0  0  0  0  0  0  0  0  0  0  0  0
  138.4091  150.0537  142.3802 C   0  0  0  0  0  0  0  0  0  0  0  0
  137.0323  150.4875  144.0493 C   0  0  0  0  0  0  0  0  0  0  0  0
  137.4445  149.5281  143.2052 C   0  0  0  0  0  0  0  0  0  0  0  0
  139.9795  150.5853  140.2873 C   0  0  0  0  0  0  0  0  0  0  0  0
  139.2095  149.4940  140.1859 C   0  0  0  0  0  0  0  0  0  0  0  0
  138.4335  149.2546  141.3311 N   0  0  0  0  0  0  0  0  0  0  0  0
  136.8700  152.8021  145.2940 Cl  0  0  0  0  0  0  0  0  0  0  0  0
  1  2  1  0
  2  3  2  0
  1  4  1  0
  1  5  2  0
  3  6  1  0
  5  7  1  0
  6  7  2  0
  4  8  2  0
  8  9  1  0
  5 10  1  0
  9 10  2  0
  3 11  1  0
M  END
$$$$

     RDKit          3D

 11 12  0  0  0  0  0  0  0  0999 V2000
  140.3019  150.2145  139.4802 Cl  0  0  0  0  0  0  0  0  0  0  0  0
  138.6758  150.1820  140.5311 C   0  0  0  0  0  0  0  0  0  0  0  0
  137.6364  149.3800  140.0902 C   0  0  0  0  0  0  0  0  0  0  0  0
  136.4360  149.4525  140.8154 C   0  0  0  0  0  0  0  0  0  0  0  0
  138.9773  150.6955  141.6819 C   0  0  0  0  0  0  0  0  0  0  0  0
  136.5018  150.3461  141.8117 C   0  0  0  0  0  0  0  0  0  0  0  0
  135.2689  150.6056  142.7086 C   0  0  0  0  0  0  0  0  0  0  0  0
  137.6963  150.9668  142.4020 C   0  0  0  0  0  0  0  0  0  0  0  0
  135.4565  150.8158  144.0625 C   0  0  0  0  0  0  0  0  0  0  0  0
  136.7210  150.9193  144.6714 C   0  0  0  0  0  0  0  0  0  0  0  0
  137.7710  151.3455  143.8169 C   0  0  0  0  0  0  0  0  0  0  0  0
  1  2  1  0
  2  3  2  0
  3  4  1  0
  2  5  1  0
  4  6  2  0
  6  7  1  0
  5  8  2  0
  6  8  1  0
  7  9  1  0
  9 10  1  0
  8 11  1  0
 10 11  1  0
M  END
$$$$

     RDKit          3D

 11 12  0  0  0  0  0  0  0  0999 V2000
  138.9697  151.3146  142.5684 C   0  0  0  0  0  0  0  0  0  0  0  0
  138.6018  152.0883  143.2657 C   0  0  0  0  0  0  0  0  0  0  0  0
  139.7627  151.4691  141.3553 C   0  0  0  0  0  0  0  0  0  0  0  0
  137.7629  151.7021  144.3622 C   0  0  0  0  0  0  0  0  0  0  0  0
  137.3916  150.2976  144.2722 C   0  0  0  0  0  0  0  0  0  0  0  0
  139.5884  150.5272  140.3063 C   0  0  0  0  0  0  0  0  0  0  0  0
  138.7536  149.4626  140.7016 C   0  0  0  0  0  0  0  0  0  0  0  0
  138.3560  149.9218  142.3330 C   0  0  0  0  0  0  0  0  0  0  0  0
  137.0555  152.3026  145.5031 C   0  0  0  0  0  0  0  0  0  0  0  0
  135.8774  152.4810  145.4525 C   0  0  0  0  0  0  0  0  0  0  0  0
  137.5995  149.4124  143.3537 N   0  0  0  0  0  0  0  0  0  0  0  0
  1  2  1  0
  1  3  1  0
  2  4  2  0
  4  5  1  0
  3  6  2  0
  6  7  1  0
  1  8  2  0
  7  8  1  0
  4  9  1  0
  9 10  2  0
  5 11  2  0
  8 11  1  0
M  END
$$$$

     RDKit          3D

 11 11  0  0  0  0  0  0  0  0999 V2000
  138.7086  151.1469  142.6266 C   0  0  0  0  0  0  0  0  0  0  0  0
  138.5250  151.9368  143.5112 C   0  0  0  0  0  0  0  0  0  0  0  0
  137.3811  151.6572  144.3961 C   0  0  0  0  0  0  0  0  0  0  0  0
  139.7008  151.1089  141.6121 C   0  0  0  0  0  0  0  0  0  0  0  0
  139.6260  150.4243  140.3624 C   0  0  0  0  0  0  0  0  0  0  0  0
  138.4083  149.6133  140.3617 C   0  0  0  0  0  0  0  0  0  0  0  0
  137.5986  150.0970  142.5687 C   0  0  0  0  0  0  0  0  0  0  0  0
  137.3381  149.4864  141.3450 C   0  0  0  0  0  0  0  0  0  0  0  0
  140.5525  150.4850  139.3959 C   0  0  0  0  0  0  0  0  0  0  0  0
  136.9923  152.6671  145.4046 C   0  0  0  0  0  0  0  0  0  0  0  0
  135.8669  152.9521  145.5893 C   0  0  0  0  0  0  0  0  0  0  0  0
  1  2  1  0
  2  3  2  3
  1  4  1  0
  4  5  2  0
  5  6  1  0
  1  7  2  0
  6  8  2  0
  7  8  1  0
  5  9  1  0
  3 10  1  0
 10 11  2  0
M  END
$$$$

     RDKit          3D

 11 12  0  0  0  0  0  0  0  0999 V2000
  138.9697  151.3146  142.5684 C   0  0  0  0  0  0  0  0  0  0  0  0
  138.6018  152.0883  143.2657 C   0  0  0  0  0  0  0  0  0  0  0  0
  137.6687  151.8115  144.0583 C   0  0  0  0  0  0  0  0  0  0  0  0
  139.9926  151.3705  141.4268 C   0  0  0  0  0  0  0  0  0  0  0  0
  137.5512  150.6294  144.9277 C   0  0  0  0  0  0  0  0  0  0  0  0
  139.6588  150.7358  140.2572 C   0  0  0  0  0  0  0  0  0  0  0  0
  138.5025  150.0408  140.2323 C   0  0  0  0  0  0  0  0  0  0  0  0
  137.6103  149.8214  141.4294 C   0  0  0  0  0  0  0  0  0  0  0  0
  140.5939  150.7056  139.1134 C   0  0  0  0  0  0  0  0  0  0  0  0
  138.0411  150.2096  142.2971 C   0  0  0  0  0  0  0  0  0  0  0  0
  137.3394  149.7464  143.7377 C   0  0  0  0  0  0  0  0  0  0  0  0
  1  2  2  0
  2  3  1  0
  1  4  1  0
  3  5  2  0
  4  6  2  0
  6  7  1  0
  7  8  1  0
  6  9  1  0
  1 10  1  0
  8 10  2  0
  5 11  1  0
 10 11  1  0
M  END
$$$$

     RDKit          3D

 11 11  0  0  0  0  0  0  0  0999 V2000
  139.2620  151.0921  142.4039 C   0  0  0  0  0  0  0  0  0  0  0  0
  138.8618  152.1315  142.9023 C   0  0  0  0  0  0  0  0  0  0  0  0
  137.9130  151.7995  143.7812 C   0  0  0  0  0  0  0  0  0  0  0  0
  138.8259  150.3979  141.6057 C   0  0  0  0  0  0  0  0  0  0  0  0
  137.6638  149.9538  141.7688 C   0  0  0  0  0  0  0  0  0  0  0  0
  136.7250  151.0112  143.4740 C   0  0  0  0  0  0  0  0  0  0  0  0
  136.5486  150.2645  142.7010 C   0  0  0  0  0  0  0  0  0  0  0  0
  135.6014  151.4064  144.6451 C   0  0  0  0  0  0  0  0  0  0  0  0
  139.6081  149.6337  140.4145 C   0  0  0  0  0  0  0  0  0  0  0  0
  140.8131  150.0858  140.0916 C   0  0  0  0  0  0  0  0  0  0  0  0
  140.8834  150.7567  138.8534 C   0  0  0  0  0  0  0  0  0  0  0  0
  1  2  1  0
  2  3  2  0
  1  4  2  0
  4  5  1  0
  3  6  1  0
  5  7  1  0
  6  7  2  0
  6  8  1  0
  4  9  1  0
  9 10  1  0
 10 11  2  0
M  END
$$$$

     RDKit          3D

 11 11  0  0  0  0  0  0  0  0999 V2000
  138.7240  151.5758  143.3184 C   0  0  0  0  0  0  0  0  0  0  0  0
  137.9193  152.3258  143.7536 C   0  0  0  0  0  0  0  0  0  0  0  0
  136.7526  151.8075  144.4391 C   0  0  0  0  0  0  0  0  0  0  0  0
  136.7825  150.4607  144.6808 C   0  0  0  0  0  0  0  0  0  0  0  0
  138.7110  150.3798  142.9931 C   0  0  0  0  0  0  0  0  0  0  0  0
  139.6064  149.6235  142.1662 C   0  0  0  0  0  0  0  0  0  0  0  0
  137.6332  149.7033  143.8880 C   0  0  0  0  0  0  0  0  0  0  0  0
  135.5540  152.5724  145.0968 C   0  0  0  0  0  0  0  0  0  0  0  0
  139.4687  150.0396  140.7541 C   0  0  0  0  0  0  0  0  0  0  0  0
  140.3039  149.4936  139.7348 C   0  0  0  0  0  0  0  0  0  0  0  0
  141.5737  149.6892  139.7612 C   0  0  0  0  0  0  0  0  0  0  0  0
  1  2  1  0
  2  3  2  0
  3  4  1  0
  1  5  2  0
  5  6  1  0
  4  7  2  0
  5  7  1  0
  3  8  1  0
  6  9  1  0
  9 10  1  0
 10 11  1  0
M  END
$$$$

     RDKit          3D

 12 13  0  0  0  0  0  0  0  0999 V2000
  138.9697  151.3146  142.5684 C   0  0  0  0  0  0  0  0  0  0  0  0
  138.6018  152.0883  143.2657 C   0  0  0  0  0  0  0  0  0  0  0  0
  137.4864  151.7371  144.1980 C   0  0  0  0  0  0  0  0  0  0  0  0
  137.1833  150.3878  144.2579 C   0  0  0  0  0  0  0  0  0  0  0  0
  138.6180  149.8372  142.4937 C   0  0  0  0  0  0  0  0  0  0  0  0
  136.6465  152.5356  145.1285 C   0  0  0  0  0  0  0  0  0  0  0  0
  136.8882  153.8031  145.2303 C   0  0  0  0  0  0  0  0  0  0  0  0
  135.5068  151.9682  145.7601 C   0  0  0  0  0  0  0  0  0  0  0  0
  136.3357  149.9134  145.2997 C   0  0  0  0  0  0  0  0  0  0  0  0
  135.3607  150.5832  145.9662 C   0  0  0  0  0  0  0  0  0  0  0  0
  137.8672  149.4565  143.3994 C   0  0  0  0  0  0  0  0  0  0  0  0
  134.4972  152.7792  146.2669 C   0  0  0  0  0  0  0  0  0  0  0  0
  1  2  1  0
  2  3  2  0
  3  4  1  0
  1  5  2  0
  3  6  1  0
  6  7  2  0
  6  8  1  0
  4  9  1  0
  8 10  1  0
  9 10  1  0
  4 11  2  0
  5 11  1  0
  8 12  2  0
M  END
$$$$

     RDKit          3D

 12 12  0  0  0  0  0  0  0  0999 V2000
  140.3019  150.2145  139.4802 Cl  0  0  0  0  0  0  0  0  0  0  0  0
  138.6758  150.1820  140.5311 C   0  0  0  0  0  0  0  0  0  0  0  0
  137.6364  149.3800  140.0902 C   0  0  0  0  0  0  0  0  0  0  0  0
  138.7467  150.9432  141.6725 C   0  0  0  0  0  0  0  0  0  0  0  0
  137.7505  150.8693  142.6256 C   0  0  0  0  0  0  0  0  0  0  0  0
  137.6039  148.8949  138.7412 C   0  0  0  0  0  0  0  0  0  0  0  0
  136.4850  149.4498  140.9065 C   0  0  0  0  0  0  0  0  0  0  0  0
  137.8432  151.5191  143.8923 C   0  0  0  0  0  0  0  0  0  0  0  0
  136.5395  150.1793  142.1832 C   0  0  0  0  0  0  0  0  0  0  0  0
  136.7293  151.5347  144.7433 C   0  0  0  0  0  0  0  0  0  0  0  0
  136.2158  150.5776  145.2499 C   0  0  0  0  0  0  0  0  0  0  0  0
  136.0740  152.6538  144.9072 C   0  0  0  0  0  0  0  0  0  0  0  0
  1  2  1  0
  2  3  2  0
  2  4  1  0
  4  5  2  0
  3  6  1  0
  3  7  1  0
  5  8  1  0
  5  9  1  0
  7  9  2  0
  8 10  1  0
 10 11  2  0
 10 12  1  0
M  END
$$$$

     RDKit          3D

 12 13  0  0  0  0  0  0  0  0999 V2000
  140.3019  150.2145  139.4802 Cl  0  0  0  0  0  0  0  0  0  0  0  0
  138.6758  150.1820  140.5311 C   0  0  0  0  0  0  0  0  0  0  0  0
  137.6364  149.3800  140.0902 C   0  0  0  0  0  0  0  0  0  0  0  0
  136.4360  149.4525  140.8154 C   0  0  0  0  0  0  0  0  0  0  0  0
  138.9773  150.6955  141.6819 C   0  0  0  0  0  0  0  0  0  0  0  0
  136.5018  150.3461  141.8117 C   0  0  0  0  0  0  0  0  0  0  0  0
  135.2689  150.6056  142.7086 C   0  0  0  0  0  0  0  0  0  0  0  0
  135.6212  151.3328  143.9590 C   0  0  0  0  0  0  0  0  0  0  0  0
  137.7575  150.8972  142.4541 C   0  0  0  0  0  0  0  0  0  0  0  0
  137.7358  151.5287  143.7906 C   0  0  0  0  0  0  0  0  0  0  0  0
  139.1085  151.8246  144.2787 C   0  0  0  0  0  0  0  0  0  0  0  0
  136.6446  151.6940  144.5065 C   0  0  0  0  0  0  0  0  0  0  0  0
  1  2  1  0
  2  3  2  0
  3  4  1  0
  2  5  1  0
  4  6  2  0
  6  7  1  0
  7  8  2  0
  5  9  2  0
  6  9  1  0
  9 10  1  0
 10 11  1  0
  8 12  1  0
 10 12  2  0
M  END
$$$$

     RDKit          3D

 12 13  0  0  0  0  0  0  0  0999 V2000
  138.9697  151.3146  142.5684 C   0  0  0  0  0  0  0  0  0  0  0  0
  138.6018  152.0883  143.2657 C   0  0  0  0  0  0  0  0  0  0  0  0
  137.4864  151.7371  144.1980 C   0  0  0  0  0  0  0  0  0  0  0  0
  139.9864  151.4011  141.4219 C   0  0  0  0  0  0  0  0  0  0  0  0
  139.7068  150.7354  140.2267 C   0  0  0  0  0  0  0  0  0  0  0  0
  138.4808  149.8562  142.3647 C   0  0  0  0  0  0  0  0  0  0  0  0
  137.2037  150.4273  144.3413 C   0  0  0  0  0  0  0  0  0  0  0  0
  138.7871  149.7780  140.0794 C   0  0  0  0  0  0  0  0  0  0  0  0
  140.8327  151.1412  139.2751 C   0  0  0  0  0  0  0  0  0  0  0  0
  136.3581  149.9469  145.2768 C   0  0  0  0  0  0  0  0  0  0  0  0
  138.1057  149.3443  141.1652 C   0  0  0  0  0  0  0  0  0  0  0  0
  137.8578  149.3768  143.5691 N   0  0  0  0  0  0  0  0  0  0  0  0
  1  2  1  0
  2  3  2  0
  1  4  1  0
  4  5  2  0
  1  6  2  0
  3  7  1  0
  5  8  1  0
  5  9  1  0
  7 10  1  0
  6 11  1  0
  8 11  2  0
  6 12  1  0
  7 12  2  0
M  END
$$$$

     RDKit          3D

 12 12  0  0  0  0  0  0  0  0999 V2000
  139.5550  150.5075  140.4438 C   0  0  0  0  0  0  0  0  0  0  0  0
  139.2165  150.0149  139.3725 C   0  0  0  0  0  0  0  0  0  0  0  0
  138.8581  150.3072  141.5852 C   0  0  0  0  0  0  0  0  0  0  0  0
  139.2270  150.3459  142.8891 C   0  0  0  0  0  0  0  0  0  0  0  0
  138.5608  151.2821  143.6742 C   0  0  0  0  0  0  0  0  0  0  0  0
  137.8570  149.4552  139.3184 C   0  0  0  0  0  0  0  0  0  0  0  0
  137.4753  151.5817  143.4203 C   0  0  0  0  0  0  0  0  0  0  0  0
  137.3786  148.8877  138.1379 C   0  0  0  0  0  0  0  0  0  0  0  0
  136.7351  152.5036  144.4173 C   0  0  0  0  0  0  0  0  0  0  0  0
  137.4806  150.0694  141.2329 C   0  0  0  0  0  0  0  0  0  0  0  0
  135.5627  152.1091  145.0586 C   0  0  0  0  0  0  0  0  0  0  0  0
  136.8922  149.5815  140.2312 C   0  0  0  0  0  0  0  0  0  0  0  0
  1  2  2  0
  1  3  1  0
  3  4  1  0
  4  5  2  3
  2  6  1  0
  5  7  1  0
  6  8  1  0
  7  9  1  0
  3 10  2  0
  9 11  1  0
  6 12  2  0
 10 12  1  0
M  END
$$$$

     RDKit          3D

 12 13  0  0  0  0  0  0  0  0999 V2000
  140.3019  150.2145  139.4802 Cl  0  0  0  0  0  0  0  0  0  0  0  0
  138.6758  150.1820  140.5311 C   0  0  0  0  0  0  0  0  0  0  0  0
  137.6364  149.3800  140.0902 C   0  0  0  0  0  0  0  0  0  0  0  0
  136.4360  149.4525  140.8154 C   0  0  0  0  0  0  0  0  0  0  0  0
  138.9773  150.6955  141.6819 C   0  0  0  0  0  0  0  0  0  0  0  0
  136.5018  150.3461  141.8117 C   0  0  0  0  0  0  0  0  0  0  0  0
  135.2689  150.6056  142.7086 C   0  0  0  0  0  0  0  0  0  0  0  0
  137.6963  150.9668  142.4020 C   0  0  0  0  0  0  0  0  0  0  0  0
  135.4565  150.8158  144.0625 C   0  0  0  0  0  0  0  0  0  0  0  0
  136.7210  150.9193  144.6714 C   0  0  0  0  0  0  0  0  0  0  0  0
  136.8849  151.8670  145.8801 C   0  0  0  0  0  0  0  0  0  0  0  0
  137.9381  151.7755  143.4890 C   0  0  0  0  0  0  0  0  0  0  0  0
  1  2  1  0
  2  3  2  0
  3  4  1  0
  2  5  1  0
  4  6  2  0
  6  7  1  0
  5  8  2  0
  6  8  1  0
  7  9  1  0
  9 10  1  0
 10 11  1  0
  8 12  1  0
 10 12  1  0
M  END
$$$$

     RDKit          3D

 12 13  0  0  0  0  0  0  0  0999 V2000
  138.7086  151.1469  142.6266 C   0  0  0  0  0  0  0  0  0  0  0  0
  138.5250  151.9368  143.5112 C   0  0  0  0  0  0  0  0  0  0  0  0
  137.3905  151.8077  144.0741 C   0  0  0  0  0  0  0  0  0  0  0  0
  136.5952  150.6189  143.9723 C   0  0  0  0  0  0  0  0  0  0  0  0
  137.9808  149.9629  142.2545 C   0  0  0  0  0  0  0  0  0  0  0  0
  136.5092  152.7499  145.0886 C   0  0  0  0  0  0  0  0  0  0  0  0
  135.4520  152.3059  145.6998 C   0  0  0  0  0  0  0  0  0  0  0  0
  135.4638  150.4686  144.8121 C   0  0  0  0  0  0  0  0  0  0  0  0
  134.8865  151.2560  145.6431 C   0  0  0  0  0  0  0  0  0  0  0  0
  138.3834  149.1625  141.1744 C   0  0  0  0  0  0  0  0  0  0  0  0
  136.9798  149.8307  142.9666 N   0  0  0  0  0  0  0  0  0  0  0  0
  134.9525  153.5633  146.5244 C   0  0  0  0  0  0  0  0  0  0  0  0
  1  2  1  0
  2  3  2  0
  3  4  1  0
  1  5  2  0
  3  6  1  0
  6  7  1  0
  4  8  1  0
  7  9  1  0
  8  9  2  0
  5 10  1  0
  4 11  2  0
  5 11  1  0
  7 12  1  0
M  END
$$$$

     RDKit          3D

 12 12  0  0  0  0  0  0  0  0999 V2000
  139.3428  149.9936  140.5898 C   0  0  0  0  0  0  0  0  0  0  0  0
  138.9752  149.9369  139.3605 C   0  0  0  0  0  0  0  0  0  0  0  0
  138.5862  150.0774  141.6376 C   0  0  0  0  0  0  0  0  0  0  0  0
  137.6061  149.8652  139.0267 C   0  0  0  0  0  0  0  0  0  0  0  0
  136.7960  149.6544  140.0716 C   0  0  0  0  0  0  0  0  0  0  0  0
  139.0847  150.3093  143.0275 C   0  0  0  0  0  0  0  0  0  0  0  0
  138.1846  150.8565  144.0192 C   0  0  0  0  0  0  0  0  0  0  0  0
  135.2933  149.6678  139.8622 C   0  0  0  0  0  0  0  0  0  0  0  0
  137.0852  151.2672  143.6119 C   0  0  0  0  0  0  0  0  0  0  0  0
  136.2823  151.9783  144.6568 C   0  0  0  0  0  0  0  0  0  0  0  0
  136.8236  153.0510  145.4014 C   0  0  0  0  0  0  0  0  0  0  0  0
  137.2637  150.0392  141.4523 C   0  0  0  0  0  0  0  0  0  0  0  0
  1  2  2  0
  1  3  1  0
  2  4  1  0
  4  5  2  0
  3  6  1  0
  6  7  2  3
  5  8  1  0
  7  9  1  0
  9 10  1  0
 10 11  1  0
  3 12  2  0
  5 12  1  0
M  END
$$$$

     RDKit          3D

 12 13  0  0  0  0  0  0  0  0999 V2000
  138.7086  151.1469  142.6266 C   0  0  0  0  0  0  0  0  0  0  0  0
  138.5250  151.9368  143.5112 C   0  0  0  0  0  0  0  0  0  0  0  0
  137.3811  151.6572  144.3961 C   0  0  0  0  0  0  0  0  0  0  0  0
  139.7008  151.1089  141.6121 C   0  0  0  0  0  0  0  0  0  0  0  0
  136.7115  150.4275  144.0247 C   0  0  0  0  0  0  0  0  0  0  0  0
  137.9015  150.0212  142.3179 C   0  0  0  0  0  0  0  0  0  0  0  0
  138.2227  149.2897  141.1482 C   0  0  0  0  0  0  0  0  0  0  0  0
  139.7131  150.3027  140.5115 C   0  0  0  0  0  0  0  0  0  0  0  0
  136.7873  149.6229  143.1228 C   0  0  0  0  0  0  0  0  0  0  0  0
  139.0521  149.4104  140.2934 C   0  0  0  0  0  0  0  0  0  0  0  0
  141.1028  150.8743  139.3375 Cl  0  0  0  0  0  0  0  0  0  0  0  0
  136.9025  152.5695  145.6364 C   0  0  0  0  0  0  0  0  0  0  0  0
  1  2  1  0
  2  3  2  0
  1  4  1  0
  3  5  1  0
  1  6  2  0
  6  7  1  0
  4  8  2  0
  5  9  2  0
  6  9  1  0
  7 10  2  0
  8 10  1  0
  8 11  1  0
  3 12  1  0
M  END
$$$$

     RDKit          3D

 12 13  0  0  0  0  0  0  0  0999 V2000
  138.9697  151.3146  142.5684 C   0  0  0  0  0  0  0  0  0  0  0  0
  138.6018  152.0883  143.2657 C   0  0  0  0  0  0  0  0  0  0  0  0
  137.6374  151.6902  144.0814 C   0  0  0  0  0  0  0  0  0  0  0  0
  140.0289  151.3257  141.4197 C   0  0  0  0  0  0  0  0  0  0  0  0
  137.1948  150.3123  143.8930 C   0  0  0  0  0  0  0  0  0  0  0  0
  139.8113  150.4471  140.2754 C   0  0  0  0  0  0  0  0  0  0  0  0
  138.3146  149.9305  142.4430 C   0  0  0  0  0  0  0  0  0  0  0  0
  139.0457  149.5706  140.1138 C   0  0  0  0  0  0  0  0  0  0  0  0
  137.5771  149.5502  143.1437 C   0  0  0  0  0  0  0  0  0  0  0  0
  138.3786  149.3020  141.3055 N   0  0  0  0  0  0  0  0  0  0  0  0
  137.0572  152.7720  145.2151 Cl  0  0  0  0  0  0  0  0  0  0  0  0
  140.7515  150.9177  139.2285 C   0  0  0  0  0  0  0  0  0  0  0  0
  1  2  1  0
  2  3  2  0
  1  4  1  0
  3  5  1  0
  4  6  1  0
  1  7  2  0
  6  8  1  0
  5  9  2  0
  7  9  1  0
  7 10  1  0
  8 10  2  0
  3 11  1  0
  6 12  1  0
M  END
$$$$

     RDKit          3D

 12 13  0  0  0  0  0  0  0  0999 V2000
  140.3019  150.2145  139.4802 Cl  0  0  0  0  0  0  0  0  0  0  0  0
  138.6758  150.1820  140.5311 C   0  0  0  0  0  0  0  0  0  0  0  0
  137.6364  149.3800  140.0902 C   0  0  0  0  0  0  0  0  0  0  0  0
  139.2345  150.7148  141.5757 C   0  0  0  0  0  0  0  0  0  0  0  0
  138.3506  151.0464  142.3754 C   0  0  0  0  0  0  0  0  0  0  0  0
  137.5082  148.8204  138.8309 C   0  0  0  0  0  0  0  0  0  0  0  0
  136.5827  149.7696  140.9317 C   0  0  0  0  0  0  0  0  0  0  0  0
  138.6187  151.7541  143.7330 C   0  0  0  0  0  0  0  0  0  0  0  0
  137.6301  151.9667  144.4855 C   0  0  0  0  0  0  0  0  0  0  0  0
  136.4136  151.4359  144.1600 C   0  0  0  0  0  0  0  0  0  0  0  0
  136.9315  150.5476  142.2049 C   0  0  0  0  0  0  0  0  0  0  0  0
  135.8498  150.7651  142.9834 C   0  0  0  0  0  0  0  0  0  0  0  0
  1  2  1  0
  2  3  1  0
  2  4  2  0
  4  5  1  0
  3  6  1  0
  3  7  2  0
  5  8  1  0
  8  9  2  0
  9 10  1  0
  5 11  2  0
  7 11  1  0
 10 12  2  0
 11 12  1  0
M  END
$$$$

     RDKit          3D

 12 13  0  0  0  0  0  0  0  0999 V2000
  140.3019  150.2145  139.4802 Cl  0  0  0  0  0  0  0  0  0  0  0  0
  138.6758  150.1820  140.5311 C   0  0  0  0  0  0  0  0  0  0  0  0
  137.6364  149.3800  140.0902 C   0  0  0  0  0  0  0  0  0  0  0  0
  136.4360  149.4525  140.8154 C   0  0  0  0  0  0  0  0  0  0  0  0
  139.1314  150.7497  141.5093 C   0  0  0  0  0  0  0  0  0  0  0  0
  138.1131  150.7916  142.6542 C   0  0  0  0  0  0  0  0  0  0  0  0
  135.1492  149.2317  140.4372 C   0  0  0  0  0  0  0  0  0  0  0  0
  138.4196  151.3905  143.9383 C   0  0  0  0  0  0  0  0  0  0  0  0
  136.7853  150.4836  142.9834 C   0  0  0  0  0  0  0  0  0  0  0  0
  136.2536  150.8828  144.2319 C   0  0  0  0  0  0  0  0  0  0  0  0
  136.2375  150.0216  142.1636 C   0  0  0  0  0  0  0  0  0  0  0  0
  137.4563  151.4306  144.8584 C   0  0  0  0  0  0  0  0  0  0  0  0
  1  2  1  0
  2  3  2  0
  3  4  1  0
  2  5  1  0
  5  6  2  0
  4  7  1  0
  6  8  1  0
  6  9  1  0
  9 10  1  0
  4 11  2  0
  9 11  1  0
  8 12  2  0
 10 12  1  0
M  END
$$$$

     RDKit          3D

 12 12  0  0  0  0  0  0  0  0999 V2000
  138.9697  151.3146  142.5684 C   0  0  0  0  0  0  0  0  0  0  0  0
  138.6018  152.0883  143.2657 C   0  0  0  0  0  0  0  0  0  0  0  0
  137.6374  151.6902  144.0814 C   0  0  0  0  0  0  0  0  0  0  0  0
  140.0289  151.3257  141.4197 C   0  0  0  0  0  0  0  0  0  0  0  0
  137.1948  150.3123  143.8930 C   0  0  0  0  0  0  0  0  0  0  0  0
  139.8113  150.4471  140.2754 C   0  0  0  0  0  0  0  0  0  0  0  0
  138.3146  149.9305  142.4430 C   0  0  0  0  0  0  0  0  0  0  0  0
  140.6766  150.7855  139.1049 C   0  0  0  0  0  0  0  0  0  0  0  0
  137.5338  149.5644  143.3292 C   0  0  0  0  0  0  0  0  0  0  0  0
  135.7810  150.7865  144.7945 C   0  0  0  0  0  0  0  0  0  0  0  0
  137.4553  152.6033  145.1209 C   0  0  0  0  0  0  0  0  0  0  0  0
  136.1585  152.2739  145.7132 C   0  0  0  0  0  0  0  0  0  0  0  0
  1  2  1  0
  2  3  2  3
  1  4  1  0
  3  5  1  0
  4  6  1  0
  1  7  2  3
  6  8  1  0
  7  9  1  0
  5 10  1  0
  3 11  1  0
 10 12  1  0
 11 12  2  0
M  END
$$$$

     RDKit          3D

 12 13  0  0  0  0  0  0  0  0999 V2000
  140.3019  150.2145  139.4802 Cl  0  0  0  0  0  0  0  0  0  0  0  0
  138.6758  150.1820  140.5311 C   0  0  0  0  0  0  0  0  0  0  0  0
  137.6364  149.3800  140.0902 C   0  0  0  0  0  0  0  0  0  0  0  0
  136.4360  149.4525  140.8154 C   0  0  0  0  0  0  0  0  0  0  0  0
  138.9773  150.6955  141.6819 C   0  0  0  0  0  0  0  0  0  0  0  0
  136.5018  150.3461  141.8117 C   0  0  0  0  0  0  0  0  0  0  0  0
  135.2689  150.6056  142.7086 C   0  0  0  0  0  0  0  0  0  0  0  0
  135.7271  151.2590  143.9921 C   0  0  0  0  0  0  0  0  0  0  0  0
  137.7105  150.8860  142.4731 C   0  0  0  0  0  0  0  0  0  0  0  0
  134.9882  151.8604  144.9274 C   0  0  0  0  0  0  0  0  0  0  0  0
  135.5194  152.4417  146.1806 C   0  0  0  0  0  0  0  0  0  0  0  0
  137.2793  151.2568  144.1984 C   0  0  0  0  0  0  0  0  0  0  0  0
  1  2  1  0
  2  3  2  0
  3  4  1  0
  2  5  1  0
  4  6  2  0
  6  7  1  0
  7  8  1  0
  5  9  2  0
  6  9  1  0
  8 10  2  3
 10 11  1  0
  8 12  1  0
  9 12  1  0
M  END
$$$$

     RDKit          3D

 12 13  0  0  0  0  0  0  0  0999 V2000
  140.3019  150.2145  139.4802 Cl  0  0  0  0  0  0  0  0  0  0  0  0
  138.6758  150.1820  140.5311 C   0  0  0  0  0  0  0  0  0  0  0  0
  137.6364  149.3800  140.0902 C   0  0  0  0  0  0  0  0  0  0  0  0
  136.4360  149.4525  140.8154 C   0  0  0  0  0  0  0  0  0  0  0  0
  139.1314  150.7497  141.5093 C   0  0  0  0  0  0  0  0  0  0  0  0
  138.1131  150.7916  142.6542 C   0  0  0  0  0  0  0  0  0  0  0  0
  135.1492  149.2317  140.4372 C   0  0  0  0  0  0  0  0  0  0  0  0
  138.4196  151.3905  143.9383 C   0  0  0  0  0  0  0  0  0  0  0  0
  136.7853  150.4836  142.9834 C   0  0  0  0  0  0  0  0  0  0  0  0
  136.1033  150.0266  142.1005 C   0  0  0  0  0  0  0  0  0  0  0  0
  136.2597  150.7690  144.2439 C   0  0  0  0  0  0  0  0  0  0  0  0
  137.1318  151.2966  144.8171 C   0  0  0  0  0  0  0  0  0  0  0  0
  1  2  1  0
  2  3  2  0
  3  4  1  0
  2  5  1  0
  5  6  2  0
  4  7  1  0
  6  8  1  0
  6  9  1  0
  4 10  1  0
  9 10  1  0
  9 11  2  0
  8 12  2  0
 11 12  1  0
M  END
$$$$

     RDKit          3D

 12 12  0  0  0  0  0  0  0  0999 V2000
  140.3019  150.2145  139.4802 Cl  0  0  0  0  0  0  0  0  0  0  0  0
  138.6758  150.1820  140.5311 C   0  0  0  0  0  0  0  0  0  0  0  0
  137.6364  149.3800  140.0902 C   0  0  0  0  0  0  0  0  0  0  0  0
  139.0293  150.8783  141.6179 C   0  0  0  0  0  0  0  0  0  0  0  0
  138.0425  150.8315  142.6892 C   0  0  0  0  0  0  0  0  0  0  0  0
  136.8327  150.0626  142.4004 C   0  0  0  0  0  0  0  0  0  0  0  0
  137.3699  148.8634  138.9180 C   0  0  0  0  0  0  0  0  0  0  0  0
  135.8138  150.2616  143.4686 C   0  0  0  0  0  0  0  0  0  0  0  0
  136.4843  149.5373  141.1082 C   0  0  0  0  0  0  0  0  0  0  0  0
  136.3633  150.4853  144.7277 C   0  0  0  0  0  0  0  0  0  0  0  0
  135.7056  151.6131  145.5104 C   0  0  0  0  0  0  0  0  0  0  0  0
  136.0133  152.8370  145.0393 C   0  0  0  0  0  0  0  0  0  0  0  0
  1  2  1  0
  2  3  2  0
  2  4  1  0
  4  5  2  0
  5  6  1  0
  3  7  1  0
  6  8  1  0
  3  9  1  0
  6  9  2  0
  8 10  1  0
 10 11  1  0
 11 12  2  0
M  END
$$$$

     RDKit          3D

 12 13  0  0  0  0  0  0  0  0999 V2000
  139.2620  151.0921  142.4039 C   0  0  0  0  0  0  0  0  0  0  0  0
  138.8618  152.1315  142.9023 C   0  0  0  0  0  0  0  0  0  0  0  0
  137.9130  151.7995  143.7812 C   0  0  0  0  0  0  0  0  0  0  0  0
  138.8259  150.3979  141.6057 C   0  0  0  0  0  0  0  0  0  0  0  0
  137.6638  149.9538  141.7688 C   0  0  0  0  0  0  0  0  0  0  0  0
  137.5091  152.6033  144.9557 C   0  0  0  0  0  0  0  0  0  0  0  0
  136.8131  150.7653  143.7756 C   0  0  0  0  0  0  0  0  0  0  0  0
  135.9244  150.8037  144.8950 C   0  0  0  0  0  0  0  0  0  0  0  0
  136.9542  149.4283  140.5394 C   0  0  0  0  0  0  0  0  0  0  0  0
  135.9804  151.7966  145.6582 C   0  0  0  0  0  0  0  0  0  0  0  0
  136.7531  150.0109  142.7418 N   0  0  0  0  0  0  0  0  0  0  0  0
  136.7468  152.7381  145.7610 C   0  0  0  0  0  0  0  0  0  0  0  0
  1  2  1  0
  2  3  2  0
  1  4  2  0
  4  5  1  0
  3  6  1  0
  3  7  1  0
  7  8  2  0
  5  9  1  0
  8 10  1  0
  5 11  2  0
  7 11  1  0
  6 12  1  0
 10 12  2  0
M  END
$$$$

     RDKit          3D

 12 13  0  0  0  0  0  0  0  0999 V2000
  138.7086  151.1469  142.6266 C   0  0  0  0  0  0  0  0  0  0  0  0
  138.5250  151.9368  143.5112 C   0  0  0  0  0  0  0  0  0  0  0  0
  137.3811  151.6572  144.3961 C   0  0  0  0  0  0  0  0  0  0  0  0
  139.7008  151.1089  141.6121 C   0  0  0  0  0  0  0  0  0  0  0  0
  136.7115  150.4275  144.0247 C   0  0  0  0  0  0  0  0  0  0  0  0
  137.9015  150.0212  142.3179 C   0  0  0  0  0  0  0  0  0  0  0  0
  138.2227  149.2897  141.1482 C   0  0  0  0  0  0  0  0  0  0  0  0
  136.8382  152.3621  145.4464 C   0  0  0  0  0  0  0  0  0  0  0  0
  139.3074  149.8097  140.3441 C   0  0  0  0  0  0  0  0  0  0  0  0
  140.0536  150.6606  140.5972 C   0  0  0  0  0  0  0  0  0  0  0  0
  136.9806  149.6678  142.8146 N   0  0  0  0  0  0  0  0  0  0  0  0
  135.5072  152.2773  145.8598 C   0  0  0  0  0  0  0  0  0  0  0  0
  1  2  1  0
  2  3  2  0
  1  4  1  0
  3  5  1  0
  1  6  2  0
  6  7  1  0
  3  8  1  0
  7  9  2  0
  4 10  2  0
  9 10  1  0
  5 11  2  0
  6 11  1  0
  8 12  1  0
M  END
$$$$

     RDKit          3D

 12 13  0  0  0  0  0  0  0  0999 V2000
  140.3019  150.2145  139.4802 Cl  0  0  0  0  0  0  0  0  0  0  0  0
  138.6758  150.1820  140.5311 C   0  0  0  0  0  0  0  0  0  0  0  0
  137.6364  149.3800  140.0902 C   0  0  0  0  0  0  0  0  0  0  0  0
  136.4360  149.4525  140.8154 C   0  0  0  0  0  0  0  0  0  0  0  0
  138.9773  150.6955  141.6819 C   0  0  0  0  0  0  0  0  0  0  0  0
  136.5018  150.3461  141.8117 C   0  0  0  0  0  0  0  0  0  0  0  0
  135.2689  150.6056  142.7086 C   0  0  0  0  0  0  0  0  0  0  0  0
  135.7271  151.2590  143.9921 C   0  0  0  0  0  0  0  0  0  0  0  0
  137.7105  150.8860  142.4731 C   0  0  0  0  0  0  0  0  0  0  0  0
  134.9882  151.8604  144.9274 C   0  0  0  0  0  0  0  0  0  0  0  0
  135.4702  152.4416  146.0149 C   0  0  0  0  0  0  0  0  0  0  0  0
  137.2501  151.2665  144.1981 C   0  0  0  0  0  0  0  0  0  0  0  0
  1  2  1  0
  2  3  2  0
  3  4  1  0
  2  5  1  0
  4  6  2  0
  6  7  1  0
  7  8  1  0
  5  9  2  0
  6  9  1  0
  8 10  1  0
 10 11  2  0
  8 12  2  0
  9 12  1  0
M  END
$$$$

     RDKit          3D

 12 13  0  0  0  0  0  0  0  0999 V2000
  139.0010  149.7643  140.3643 C   0  0  0  0  0  0  0  0  0  0  0  0
  138.7144  149.5449  139.1247 C   0  0  0  0  0  0  0  0  0  0  0  0
  138.1840  150.1020  141.2852 C   0  0  0  0  0  0  0  0  0  0  0  0
  137.3200  149.5871  138.6815 C   0  0  0  0  0  0  0  0  0  0  0  0
  136.9839  149.1440  137.4603 O   0  0  0  0  0  0  0  0  0  0  0  0
  136.5120  149.8334  139.7504 C   0  0  0  0  0  0  0  0  0  0  0  0
  136.8275  150.1526  141.0382 C   0  0  0  0  0  0  0  0  0  0  0  0
  138.5748  150.4812  142.6527 C   0  0  0  0  0  0  0  0  0  0  0  0
  135.9105  150.4474  142.0009 C   0  0  0  0  0  0  0  0  0  0  0  0
  139.9690  150.5092  143.0007 C   0  0  0  0  0  0  0  0  0  0  0  0
  137.7444  150.7976  143.4900 C   0  0  0  0  0  0  0  0  0  0  0  0
  136.3131  150.8991  143.2875 C   0  0  0  0  0  0  0  0  0  0  0  0
  1  2  2  0
  1  3  1  0
  2  4  1  0
  4  5  2  0
  4  6  1  0
  3  7  1  0
  6  7  1  0
  3  8  2  0
  7  9  2  0
  8 10  1  0
  8 11  1  0
  9 12  1  0
 11 12  2  0
M  END
$$$$

     RDKit          3D

 12 13  0  0  0  0  0  0  0  0999 V2000
  140.3019  150.2145  139.4802 Cl  0  0  0  0  0  0  0  0  0  0  0  0
  138.6758  150.1820  140.5311 C   0  0  0  0  0  0  0  0  0  0  0  0
  137.6364  149.3800  140.0902 C   0  0  0  0  0  0  0  0  0  0  0  0
  137.5436  148.9622  138.7410 C   0  0  0  0  0  0  0  0  0  0  0  0
  138.4827  150.4324  141.7166 C   0  0  0  0  0  0  0  0  0  0  0  0
  136.4911  149.4153  140.9672 C   0  0  0  0  0  0  0  0  0  0  0  0
  137.3926  150.3484  142.5006 C   0  0  0  0  0  0  0  0  0  0  0  0
  139.7583  151.2525  142.5446 C   0  0  0  0  0  0  0  0  0  0  0  0
  137.3451  150.9385  143.9467 C   0  0  0  0  0  0  0  0  0  0  0  0
  138.4246  151.1886  144.7540 C   0  0  0  0  0  0  0  0  0  0  0  0
  139.6043  151.6255  143.8066 C   0  0  0  0  0  0  0  0  0  0  0  0
  136.4255  150.0199  142.1010 C   0  0  0  0  0  0  0  0  0  0  0  0
  1  2  1  0
  2  3  2  0
  3  4  1  0
  2  5  1  0
  3  6  1  0
  5  7  2  0
  5  8  1  0
  7  9  1  0
  9 10  1  0
  8 11  1  0
 10 11  1  0
  6 12  2  0
  7 12  1  0
M  END
$$$$

     RDKit          3D

 12 13  0  0  0  0  0  0  0  0999 V2000
  138.7240  151.5758  143.3184 C   0  0  0  0  0  0  0  0  0  0  0  0
  137.9193  152.3258  143.7536 C   0  0  0  0  0  0  0  0  0  0  0  0
  136.7526  151.8075  144.4391 C   0  0  0  0  0  0  0  0  0  0  0  0
  136.7825  150.4607  144.6808 C   0  0  0  0  0  0  0  0  0  0  0  0
  135.8633  152.6144  145.2382 C   0  0  0  0  0  0  0  0  0  0  0  0
  138.4720  150.1666  143.2072 C   0  0  0  0  0  0  0  0  0  0  0  0
  135.9938  153.8877  145.3789 C   0  0  0  0  0  0  0  0  0  0  0  0
  134.7465  151.9838  145.8269 C   0  0  0  0  0  0  0  0  0  0  0  0
  139.3227  149.2363  142.5316 C   0  0  0  0  0  0  0  0  0  0  0  0
  135.8241  150.0462  145.6494 C   0  0  0  0  0  0  0  0  0  0  0  0
  134.8848  150.7004  146.2383 C   0  0  0  0  0  0  0  0  0  0  0  0
  137.5594  149.6617  144.0104 N   0  0  0  0  0  0  0  0  0  0  0  0
  1  2  1  0
  2  3  2  0
  3  4  1  0
  3  5  1  0
  1  6  2  0
  5  7  1  0
  5  8  2  0
  6  9  1  0
  4 10  1  0
  8 11  1  0
 10 11  2  0
  4 12  2  0
  6 12  1  0
M  END
$$$$

     RDKit          3D

 12 13  0  0  0  0  0  0  0  0999 V2000
  140.3019  150.2145  139.4802 Cl  0  0  0  0  0  0  0  0  0  0  0  0
  138.6758  150.1820  140.5311 C   0  0  0  0  0  0  0  0  0  0  0  0
  137.6364  149.3800  140.0902 C   0  0  0  0  0  0  0  0  0  0  0  0
  137.5436  148.9622  138.7410 C   0  0  0  0  0  0  0  0  0  0  0  0
  138.4827  150.4324  141.7166 C   0  0  0  0  0  0  0  0  0  0  0  0
  136.4911  149.4153  140.9672 C   0  0  0  0  0  0  0  0  0  0  0  0
  137.3926  150.3484  142.5006 C   0  0  0  0  0  0  0  0  0  0  0  0
  139.7583  151.2525  142.5446 C   0  0  0  0  0  0  0  0  0  0  0  0
  137.3451  150.9385  143.9467 C   0  0  0  0  0  0  0  0  0  0  0  0
  136.2893  149.9077  141.9593 C   0  0  0  0  0  0  0  0  0  0  0  0
  138.4588  151.1634  144.6497 C   0  0  0  0  0  0  0  0  0  0  0  0
  139.5675  151.3821  143.9970 C   0  0  0  0  0  0  0  0  0  0  0  0
  1  2  1  0
  2  3  2  0
  3  4  1  0
  2  5  1  0
  3  6  1  0
  5  7  2  0
  5  8  1  0
  7  9  1  0
  6 10  2  0
  7 10  1  0
  9 11  2  0
  8 12  2  0
 11 12  1  0
M  END
$$$$

     RDKit          3D

 12 13  0  0  0  0  0  0  0  0999 V2000
  139.2620  151.0921  142.4039 C   0  0  0  0  0  0  0  0  0  0  0  0
  138.8618  152.1315  142.9023 C   0  0  0  0  0  0  0  0  0  0  0  0
  137.9130  151.7995  143.7812 C   0  0  0  0  0  0  0  0  0  0  0  0
  138.8259  150.3979  141.6057 C   0  0  0  0  0  0  0  0  0  0  0  0
  137.6638  149.9538  141.7688 C   0  0  0  0  0  0  0  0  0  0  0  0
  137.5091  152.6033  144.9557 C   0  0  0  0  0  0  0  0  0  0  0  0
  136.8131  150.7653  143.7756 C   0  0  0  0  0  0  0  0  0  0  0  0
  135.9244  150.8037  144.8950 C   0  0  0  0  0  0  0  0  0  0  0  0
  136.9542  149.4283  140.5394 C   0  0  0  0  0  0  0  0  0  0  0  0
  135.9804  151.7966  145.6582 C   0  0  0  0  0  0  0  0  0  0  0  0
  136.7531  150.0109  142.7418 N   0  0  0  0  0  0  0  0  0  0  0  0
  136.7616  152.7986  145.7837 C   0  0  0  0  0  0  0  0  0  0  0  0
  1  2  1  0
  2  3  2  0
  1  4  2  0
  4  5  1  0
  3  6  1  0
  3  7  1  0
  7  8  2  0
  5  9  1  0
  8 10  1  0
  5 11  2  0
  7 11  1  0
  6 12  2  0
 10 12  1  0
M  END
$$$$

     RDKit          3D

 12 12  0  0  0  0  0  0  0  0999 V2000
  138.7240  151.5758  143.3184 C   0  0  0  0  0  0  0  0  0  0  0  0
  137.9193  152.3258  143.7536 C   0  0  0  0  0  0  0  0  0  0  0  0
  136.7526  151.8075  144.4391 C   0  0  0  0  0  0  0  0  0  0  0  0
  138.5730  150.7616  142.3607 C   0  0  0  0  0  0  0  0  0  0  0  0
  136.5022  150.5129  144.1734 C   0  0  0  0  0  0  0  0  0  0  0  0
  139.5484  150.5136  141.3201 C   0  0  0  0  0  0  0  0  0  0  0  0
  137.3290  149.9593  142.5491 C   0  0  0  0  0  0  0  0  0  0  0  0
  135.7601  152.4565  145.4755 C   0  0  0  0  0  0  0  0  0  0  0  0
  134.8420  151.7924  146.0388 C   0  0  0  0  0  0  0  0  0  0  0  0
  139.2495  149.9272  140.1262 C   0  0  0  0  0  0  0  0  0  0  0  0
  140.1419  150.0293  138.9966 C   0  0  0  0  0  0  0  0  0  0  0  0
  136.1541  153.5953  145.5190 O   0  0  0  0  0  0  0  0  0  0  0  0
  1  2  1  0
  2  3  2  0
  1  4  2  0
  3  5  1  0
  4  6  1  0
  4  7  1  0
  5  7  2  0
  3  8  1  0
  8  9  1  0
  6 10  1  0
 10 11  1  0
  8 12  2  0
M  END
$$$$

     RDKit          3D

 12 13  0  0  0  0  0  0  0  0999 V2000
  140.3019  150.2145  139.4802 Cl  0  0  0  0  0  0  0  0  0  0  0  0
  138.6758  150.1820  140.5311 C   0  0  0  0  0  0  0  0  0  0  0  0
  137.6364  149.3800  140.0902 C   0  0  0  0  0  0  0  0  0  0  0  0
  136.4360  149.4525  140.8154 C   0  0  0  0  0  0  0  0  0  0  0  0
  139.1314  150.7497  141.5093 C   0  0  0  0  0  0  0  0  0  0  0  0
  138.1131  150.7916  142.6542 C   0  0  0  0  0  0  0  0  0  0  0  0
  135.1492  149.2317  140.4372 C   0  0  0  0  0  0  0  0  0  0  0  0
  138.4196  151.3905  143.9383 C   0  0  0  0  0  0  0  0  0  0  0  0
  136.7853  150.4836  142.9834 N   0  0  0  0  0  0  0  0  0  0  0  0
  136.2610  150.8697  144.2731 C   0  0  0  0  0  0  0  0  0  0  0  0
  135.8539  149.8186  141.8773 C   0  0  0  0  0  0  0  0  0  0  0  0
  137.3325  151.3031  144.6967 C   0  0  0  0  0  0  0  0  0  0  0  0
  1  2  1  0
  2  3  2  0
  3  4  1  0
  2  5  1  0
  5  6  2  0
  4  7  1  0
  6  8  1  0
  6  9  1  0
  9 10  1  0
  4 11  1  0
  9 11  1  0
  8 12  2  0
 10 12  2  0
M  END
$$$$

     RDKit          3D

 12 13  0  0  0  0  0  0  0  0999 V2000
  140.3019  150.2145  139.4802 Cl  0  0  0  0  0  0  0  0  0  0  0  0
  138.6758  150.1820  140.5311 C   0  0  0  0  0  0  0  0  0  0  0  0
  137.6364  149.3800  140.0902 C   0  0  0  0  0  0  0  0  0  0  0  0
  139.2345  150.7148  141.5757 C   0  0  0  0  0  0  0  0  0  0  0  0
  138.3506  151.0464  142.3754 C   0  0  0  0  0  0  0  0  0  0  0  0
  136.6679  149.8087  140.9324 C   0  0  0  0  0  0  0  0  0  0  0  0
  138.6250  151.7679  143.7112 C   0  0  0  0  0  0  0  0  0  0  0  0
  135.2414  149.4762  140.7472 C   0  0  0  0  0  0  0  0  0  0  0  0
  137.5911  151.8691  144.5285 C   0  0  0  0  0  0  0  0  0  0  0  0
  136.4610  151.4441  144.2520 C   0  0  0  0  0  0  0  0  0  0  0  0
  136.9019  150.6075  142.1910 C   0  0  0  0  0  0  0  0  0  0  0  0
  135.9566  150.8477  143.1046 C   0  0  0  0  0  0  0  0  0  0  0  0
  1  2  1  0
  2  3  1  0
  2  4  2  0
  4  5  1  0
  3  6  2  0
  5  7  1  0
  6  8  1  0
  7  9  2  0
  9 10  1  0
  5 11  2  0
  6 11  1  0
 10 12  2  0
 11 12  1  0
M  END
$$$$

     RDKit          3D

 12 13  0  0  0  0  0  0  0  0999 V2000
  140.3019  150.2145  139.4802 Cl  0  0  0  0  0  0  0  0  0  0  0  0
  138.6758  150.1820  140.5311 C   0  0  0  0  0  0  0  0  0  0  0  0
  137.6364  149.3800  140.0902 C   0  0  0  0  0  0  0  0  0  0  0  0
  136.4360  149.4525  140.8154 C   0  0  0  0  0  0  0  0  0  0  0  0
  138.9773  150.6955  141.6819 C   0  0  0  0  0  0  0  0  0  0  0  0
  136.5018  150.3461  141.8117 C   0  0  0  0  0  0  0  0  0  0  0  0
  135.2689  150.6056  142.7086 C   0  0  0  0  0  0  0  0  0  0  0  0
  135.6212  151.3328  143.9590 C   0  0  0  0  0  0  0  0  0  0  0  0
  137.7575  150.8972  142.4541 C   0  0  0  0  0  0  0  0  0  0  0  0
  137.7358  151.5287  143.7906 C   0  0  0  0  0  0  0  0  0  0  0  0
  134.2983  151.6250  144.8103 C   0  0  0  0  0  0  0  0  0  0  0  0
  136.7924  151.7211  144.5297 C   0  0  0  0  0  0  0  0  0  0  0  0
  1  2  1  0
  2  3  2  0
  3  4  1  0
  2  5  1  0
  4  6  2  0
  6  7  1  0
  7  8  2  0
  5  9  2  0
  6  9  1  0
  9 10  1  0
  8 11  1  0
  8 12  1  0
 10 12  2  0
M  END
$$$$

     RDKit          3D

 12 13  0  0  0  0  0  0  0  0999 V2000
  139.3428  149.9936  140.5898 C   0  0  0  0  0  0  0  0  0  0  0  0
  138.9752  149.9369  139.3605 C   0  0  0  0  0  0  0  0  0  0  0  0
  138.5862  150.0774  141.6376 C   0  0  0  0  0  0  0  0  0  0  0  0
  137.2156  149.9043  141.8335 C   0  0  0  0  0  0  0  0  0  0  0  0
  136.5021  149.8247  140.5813 C   0  0  0  0  0  0  0  0  0  0  0  0
  139.1845  150.3562  143.1502 C   0  0  0  0  0  0  0  0  0  0  0  0
  138.3557  151.1252  143.9047 C   0  0  0  0  0  0  0  0  0  0  0  0
  136.5232  150.1791  143.0233 C   0  0  0  0  0  0  0  0  0  0  0  0
  135.1657  149.6396  140.4783 C   0  0  0  0  0  0  0  0  0  0  0  0
  137.1196  150.7461  144.0853 C   0  0  0  0  0  0  0  0  0  0  0  0
  137.4100  149.7345  139.3913 C   0  0  0  0  0  0  0  0  0  0  0  0
  136.2663  151.0965  145.4416 C   0  0  0  0  0  0  0  0  0  0  0  0
  1  2  2  0
  1  3  1  0
  3  4  1  0
  4  5  2  0
  3  6  1  0
  6  7  2  0
  4  8  1  0
  5  9  1  0
  7 10  1  0
  8 10  2  0
  2 11  1  0
  5 11  1  0
 10 12  1  0
M  END
$$$$

     RDKit          3D

 12 13  0  0  0  0  0  0  0  0999 V2000
  140.3019  150.2145  139.4802 Cl  0  0  0  0  0  0  0  0  0  0  0  0
  138.6758  150.1820  140.5311 C   0  0  0  0  0  0  0  0  0  0  0  0
  137.6364  149.3800  140.0902 C   0  0  0  0  0  0  0  0  0  0  0  0
  136.4360  149.4525  140.8154 C   0  0  0  0  0  0  0  0  0  0  0  0
  139.1314  150.7497  141.5093 C   0  0  0  0  0  0  0  0  0  0  0  0
  138.1131  150.7916  142.6542 C   0  0  0  0  0  0  0  0  0  0  0  0
  135.1492  149.2317  140.4372 C   0  0  0  0  0  0  0  0  0  0  0  0
  138.4196  151.3905  143.9383 C   0  0  0  0  0  0  0  0  0  0  0  0
  136.7853  150.4836  142.9834 N   0  0  0  0  0  0  0  0  0  0  0  0
  136.2610  150.8697  144.2731 C   0  0  0  0  0  0  0  0  0  0  0  0
  135.8407  150.0272  142.1257 C   0  0  0  0  0  0  0  0  0  0  0  0
  137.3321  151.3032  144.7041 N   0  0  0  0  0  0  0  0  0  0  0  0
  1  2  1  0
  2  3  2  0
  3  4  1  0
  2  5  1  0
  5  6  2  0
  4  7  1  0
  6  8  1  0
  6  9  1  0
  9 10  1  0
  4 11  2  0
  9 11  1  0
  8 12  1  0
 10 12  2  0
M  END
$$$$

     RDKit          3D

 12 13  0  0  0  0  0  0  0  0999 V2000
  140.3019  150.2145  139.4802 Cl  0  0  0  0  0  0  0  0  0  0  0  0
  138.6758  150.1820  140.5311 C   0  0  0  0  0  0  0  0  0  0  0  0
  137.6364  149.3800  140.0902 C   0  0  0  0  0  0  0  0  0  0  0  0
  139.0293  150.8783  141.6179 C   0  0  0  0  0  0  0  0  0  0  0  0
  138.0425  150.8315  142.6892 C   0  0  0  0  0  0  0  0  0  0  0  0
  136.8327  150.0626  142.4004 C   0  0  0  0  0  0  0  0  0  0  0  0
  137.3699  148.8634  138.9180 C   0  0  0  0  0  0  0  0  0  0  0  0
  135.8138  150.2616  143.4686 C   0  0  0  0  0  0  0  0  0  0  0  0
  136.4871  149.5587  141.1039 C   0  0  0  0  0  0  0  0  0  0  0  0
  138.3793  151.4596  143.9718 C   0  0  0  0  0  0  0  0  0  0  0  0
  137.4892  151.9309  144.5576 C   0  0  0  0  0  0  0  0  0  0  0  0
  136.2626  151.1693  144.5388 C   0  0  0  0  0  0  0  0  0  0  0  0
  1  2  1  0
  2  3  2  0
  2  4  1  0
  4  5  2  0
  5  6  1  0
  3  7  1  0
  6  8  1  0
  3  9  1  0
  6  9  2  0
  5 10  1  0
 10 11  1  0
  8 12  1  0
 11 12  2  0
M  END
$$$$

     RDKit          3D

 12 13  0  0  0  0  0  0  0  0999 V2000
  138.7086  151.1469  142.6266 C   0  0  0  0  0  0  0  0  0  0  0  0
  138.5250  151.9368  143.5112 C   0  0  0  0  0  0  0  0  0  0  0  0
  137.3811  151.6572  144.3961 C   0  0  0  0  0  0  0  0  0  0  0  0
  139.7008  151.1089  141.6121 C   0  0  0  0  0  0  0  0  0  0  0  0
  136.7115  150.4275  144.0247 C   0  0  0  0  0  0  0  0  0  0  0  0
  137.9015  150.0212  142.3179 C   0  0  0  0  0  0  0  0  0  0  0  0
  138.2227  149.2897  141.1482 C   0  0  0  0  0  0  0  0  0  0  0  0
  136.8382  152.3621  145.4464 C   0  0  0  0  0  0  0  0  0  0  0  0
  137.0338  149.6736  142.9427 N   0  0  0  0  0  0  0  0  0  0  0  0
  139.6305  150.2633  140.5639 C   0  0  0  0  0  0  0  0  0  0  0  0
  135.4957  152.2961  145.8540 C   0  0  0  0  0  0  0  0  0  0  0  0
  140.2798  150.4234  139.6822 O   0  0  0  0  0  0  0  0  0  0  0  0
  1  2  1  0
  2  3  2  0
  1  4  1  0
  3  5  1  0
  1  6  2  0
  6  7  1  0
  3  8  1  0
  5  9  2  0
  6  9  1  0
  4 10  1  0
  7 10  1  0
  8 11  1  0
 10 12  2  0
M  END
$$$$

     RDKit          3D

 12 13  0  0  0  0  0  0  0  0999 V2000
  139.3428  149.9936  140.5898 C   0  0  0  0  0  0  0  0  0  0  0  0
  138.9752  149.9369  139.3605 C   0  0  0  0  0  0  0  0  0  0  0  0
  138.5862  150.0774  141.6376 C   0  0  0  0  0  0  0  0  0  0  0  0
  137.2156  149.9043  141.8335 C   0  0  0  0  0  0  0  0  0  0  0  0
  136.5021  149.8247  140.5813 C   0  0  0  0  0  0  0  0  0  0  0  0
  139.1845  150.3562  143.1502 C   0  0  0  0  0  0  0  0  0  0  0  0
  138.3557  151.1252  143.9047 C   0  0  0  0  0  0  0  0  0  0  0  0
  136.5232  150.1791  143.0233 C   0  0  0  0  0  0  0  0  0  0  0  0
  137.0670  150.7700  144.0139 C   0  0  0  0  0  0  0  0  0  0  0  0
  136.3026  151.2910  145.1627 C   0  0  0  0  0  0  0  0  0  0  0  0
  137.3808  149.7329  139.3152 C   0  0  0  0  0  0  0  0  0  0  0  0
  135.2571  152.1760  144.9609 C   0  0  0  0  0  0  0  0  0  0  0  0
  1  2  2  0
  1  3  1  0
  3  4  1  0
  4  5  2  0
  3  6  1  0
  6  7  2  0
  4  8  1  0
  7  9  1  0
  8  9  2  0
  9 10  1  0
  2 11  1  0
  5 11  1  0
 10 12  1  0
M  END
$$$$

     RDKit          3D

 12 12  0  0  0  0  0  0  0  0999 V2000
  139.0010  149.7643  140.3643 C   0  0  0  0  0  0  0  0  0  0  0  0
  138.7144  149.5449  139.1247 C   0  0  0  0  0  0  0  0  0  0  0  0
  138.1840  150.1020  141.2852 C   0  0  0  0  0  0  0  0  0  0  0  0
  139.6385  149.1413  138.0959 C   0  0  0  0  0  0  0  0  0  0  0  0
  136.6881  150.0305  141.1796 C   0  0  0  0  0  0  0  0  0  0  0  0
  135.7984  150.1278  142.2481 C   0  0  0  0  0  0  0  0  0  0  0  0
  136.4562  150.6806  143.3963 C   0  0  0  0  0  0  0  0  0  0  0  0
  135.7469  151.0481  144.6522 C   0  0  0  0  0  0  0  0  0  0  0  0
  136.1660  152.3400  145.2923 C   0  0  0  0  0  0  0  0  0  0  0  0
  137.8404  151.0220  143.7610 C   0  0  0  0  0  0  0  0  0  0  0  0
  138.7033  150.6813  142.4883 C   0  0  0  0  0  0  0  0  0  0  0  0
  135.4504  153.3979  145.3724 C   0  0  0  0  0  0  0  0  0  0  0  0
  1  2  2  3
  1  3  1  0
  2  4  1  0
  3  5  2  0
  5  6  1  0
  6  7  2  0
  7  8  1  0
  8  9  1  0
  7 10  1  0
  3 11  1  0
 10 11  1  0
  9 12  2  0
M  END
$$$$

     RDKit          3D

 12 13  0  0  0  0  0  0  0  0999 V2000
  138.7086  151.1469  142.6266 C   0  0  0  0  0  0  0  0  0  0  0  0
  138.5250  151.9368  143.5112 C   0  0  0  0  0  0  0  0  0  0  0  0
  137.3811  151.6572  144.3961 C   0  0  0  0  0  0  0  0  0  0  0  0
  139.7008  151.1089  141.6121 C   0  0  0  0  0  0  0  0  0  0  0  0
  136.7115  150.4275  144.0247 C   0  0  0  0  0  0  0  0  0  0  0  0
  137.9015  150.0212  142.3179 C   0  0  0  0  0  0  0  0  0  0  0  0
  138.2227  149.2897  141.1482 C   0  0  0  0  0  0  0  0  0  0  0  0
  139.7131  150.3027  140.5115 C   0  0  0  0  0  0  0  0  0  0  0  0
  136.7873  149.6229  143.1228 C   0  0  0  0  0  0  0  0  0  0  0  0
  139.0521  149.4104  140.2934 C   0  0  0  0  0  0  0  0  0  0  0  0
  141.0537  150.7699  139.4973 C   0  0  0  0  0  0  0  0  0  0  0  0
  136.8954  152.5748  145.6366 C   0  0  0  0  0  0  0  0  0  0  0  0
  1  2  1  0
  2  3  2  0
  1  4  1  0
  3  5  1  0
  1  6  2  0
  6  7  1  0
  4  8  2  0
  5  9  2  0
  6  9  1  0
  7 10  2  0
  8 10  1  0
  8 11  1  0
  3 12  1  0
M  END
$$$$

     RDKit          3D

 12 13  0  0  0  0  0  0  0  0999 V2000
  138.9697  151.3146  142.5684 C   0  0  0  0  0  0  0  0  0  0  0  0
  138.6018  152.0883  143.2657 C   0  0  0  0  0  0  0  0  0  0  0  0
  137.4864  151.7371  144.1980 C   0  0  0  0  0  0  0  0  0  0  0  0
  139.9864  151.4011  141.4219 C   0  0  0  0  0  0  0  0  0  0  0  0
  139.7068  150.7354  140.2267 C   0  0  0  0  0  0  0  0  0  0  0  0
  138.4808  149.8562  142.3647 C   0  0  0  0  0  0  0  0  0  0  0  0
  137.2037  150.4273  144.3413 C   0  0  0  0  0  0  0  0  0  0  0  0
  138.7871  149.7780  140.0794 C   0  0  0  0  0  0  0  0  0  0  0  0
  140.8327  151.1412  139.2751 C   0  0  0  0  0  0  0  0  0  0  0  0
  138.1099  149.3817  141.2932 C   0  0  0  0  0  0  0  0  0  0  0  0
  137.1057  152.8755  145.0697 C   0  0  0  0  0  0  0  0  0  0  0  0
  137.8598  149.4026  143.6226 N   0  0  0  0  0  0  0  0  0  0  0  0
  1  2  1  0
  2  3  2  0
  1  4  1  0
  4  5  2  0
  1  6  2  0
  3  7  1  0
  5  8  1  0
  5  9  1  0
  6 10  1  0
  8 10  2  0
  3 11  1  0
  6 12  1  0
  7 12  2  0
M  END
$$$$

     RDKit          3D

 12 13  0  0  0  0  0  0  0  0999 V2000
  139.5550  150.5075  140.4438 C   0  0  0  0  0  0  0  0  0  0  0  0
  139.2165  150.0149  139.3725 C   0  0  0  0  0  0  0  0  0  0  0  0
  138.8581  150.3072  141.5852 C   0  0  0  0  0  0  0  0  0  0  0  0
  139.2270  150.3459  142.8891 C   0  0  0  0  0  0  0  0  0  0  0  0
  138.5608  151.2821  143.6742 C   0  0  0  0  0  0  0  0  0  0  0  0
  137.8570  149.4552  139.3184 C   0  0  0  0  0  0  0  0  0  0  0  0
  137.4753  151.5817  143.4203 C   0  0  0  0  0  0  0  0  0  0  0  0
  137.4378  150.1450  141.2520 C   0  0  0  0  0  0  0  0  0  0  0  0
  136.4113  151.9557  144.2718 C   0  0  0  0  0  0  0  0  0  0  0  0
  136.9459  149.6318  140.2423 C   0  0  0  0  0  0  0  0  0  0  0  0
  136.6293  150.8339  142.4306 C   0  0  0  0  0  0  0  0  0  0  0  0
  136.6617  153.2388  145.1081 C   0  0  0  0  0  0  0  0  0  0  0  0
  1  2  2  0
  1  3  1  0
  3  4  1  0
  4  5  2  0
  2  6  1  0
  5  7  1  0
  3  8  2  0
  7  9  2  3
  6 10  2  0
  8 10  1  0
  7 11  1  0
  8 11  1  0
  9 12  1  0
M  END
$$$$

     RDKit          3D

 12 13  0  0  0  0  0  0  0  0999 V2000
  140.3019  150.2145  139.4802 Cl  0  0  0  0  0  0  0  0  0  0  0  0
  138.6758  150.1820  140.5311 C   0  0  0  0  0  0  0  0  0  0  0  0
  137.6364  149.3800  140.0902 C   0  0  0  0  0  0  0  0  0  0  0  0
  136.4360  149.4525  140.8154 C   0  0  0  0  0  0  0  0  0  0  0  0
  139.1314  150.7497  141.5093 C   0  0  0  0  0  0  0  0  0  0  0  0
  138.1131  150.7916  142.6542 C   0  0  0  0  0  0  0  0  0  0  0  0
  135.1492  149.2317  140.4372 C   0  0  0  0  0  0  0  0  0  0  0  0
  138.4196  151.3905  143.9383 C   0  0  0  0  0  0  0  0  0  0  0  0
  136.7853  150.4836  142.9834 C   0  0  0  0  0  0  0  0  0  0  0  0
  136.2536  150.8828  144.2319 C   0  0  0  0  0  0  0  0  0  0  0  0
  136.0928  150.0632  141.9037 C   0  0  0  0  0  0  0  0  0  0  0  0
  137.4027  151.4697  144.9126 C   0  0  0  0  0  0  0  0  0  0  0  0
  1  2  1  0
  2  3  2  0
  3  4  1  0
  2  5  1  0
  5  6  2  0
  4  7  1  0
  6  8  1  0
  6  9  1  0
  9 10  1  0
  4 11  1  0
  9 11  1  0
  8 12  2  0
 10 12  1  0
M  END
$$$$

     RDKit          3D

 12 13  0  0  0  0  0  0  0  0999 V2000
  138.7086  151.1469  142.6266 C   0  0  0  0  0  0  0  0  0  0  0  0
  138.5250  151.9368  143.5112 C   0  0  0  0  0  0  0  0  0  0  0  0
  137.3905  151.8077  144.0741 C   0  0  0  0  0  0  0  0  0  0  0  0
  136.5952  150.6189  143.9723 C   0  0  0  0  0  0  0  0  0  0  0  0
  137.9808  149.9629  142.2545 C   0  0  0  0  0  0  0  0  0  0  0  0
  136.5092  152.7499  145.0886 C   0  0  0  0  0  0  0  0  0  0  0  0
  135.4520  152.3059  145.6998 C   0  0  0  0  0  0  0  0  0  0  0  0
  135.4638  150.4686  144.8121 C   0  0  0  0  0  0  0  0  0  0  0  0
  134.8865  151.2560  145.6431 C   0  0  0  0  0  0  0  0  0  0  0  0
  138.3834  149.1625  141.1744 C   0  0  0  0  0  0  0  0  0  0  0  0
  136.9798  149.8307  142.9666 N   0  0  0  0  0  0  0  0  0  0  0  0
  134.9525  153.5633  146.5244 C   0  0  0  0  0  0  0  0  0  0  0  0
  1  2  1  0
  2  3  2  0
  3  4  1  0
  1  5  2  0
  3  6  1  0
  6  7  1  0
  4  8  1  0
  7  9  1  0
  8  9  2  0
  5 10  1  0
  4 11  2  0
  5 11  1  0
  7 12  2  0
M  END
$$$$

     RDKit          3D

 12 13  0  0  0  0  0  0  0  0999 V2000
  138.7086  151.1469  142.6266 C   0  0  0  0  0  0  0  0  0  0  0  0
  138.5250  151.9368  143.5112 C   0  0  0  0  0  0  0  0  0  0  0  0
  137.3905  151.8077  144.0741 C   0  0  0  0  0  0  0  0  0  0  0  0
  136.5952  150.6189  143.9723 C   0  0  0  0  0  0  0  0  0  0  0  0
  137.9808  149.9629  142.2545 C   0  0  0  0  0  0  0  0  0  0  0  0
  136.5092  152.7499  145.0886 C   0  0  0  0  0  0  0  0  0  0  0  0
  135.4520  152.3059  145.6998 C   0  0  0  0  0  0  0  0  0  0  0  0
  135.4638  150.4686  144.8121 C   0  0  0  0  0  0  0  0  0  0  0  0
  134.8689  151.1429  145.6336 C   0  0  0  0  0  0  0  0  0  0  0  0
  136.9606  149.7477  143.0402 C   0  0  0  0  0  0  0  0  0  0  0  0
  140.0360  151.3669  141.7486 C   0  0  0  0  0  0  0  0  0  0  0  0
  139.9379  151.0430  140.3370 C   0  0  0  0  0  0  0  0  0  0  0  0
  1  2  1  0
  2  3  2  0
  3  4  1  0
  1  5  2  0
  3  6  1  0
  6  7  1  0
  4  8  1  0
  7  9  2  0
  8  9  2  0
  4 10  2  0
  5 10  1  0
  1 11  1  0
 11 12  2  0
M  END
$$$$

     RDKit          3D

 12 13  0  0  0  0  0  0  0  0999 V2000
  140.3019  150.2145  139.4802 Cl  0  0  0  0  0  0  0  0  0  0  0  0
  138.6758  150.1820  140.5311 C   0  0  0  0  0  0  0  0  0  0  0  0
  137.6364  149.3800  140.0902 C   0  0  0  0  0  0  0  0  0  0  0  0
  136.4360  149.4525  140.8154 C   0  0  0  0  0  0  0  0  0  0  0  0
  139.1314  150.7497  141.5093 C   0  0  0  0  0  0  0  0  0  0  0  0
  138.1131  150.7916  142.6542 C   0  0  0  0  0  0  0  0  0  0  0  0
  135.1492  149.2317  140.4372 C   0  0  0  0  0  0  0  0  0  0  0  0
  138.4196  151.3905  143.9383 C   0  0  0  0  0  0  0  0  0  0  0  0
  136.7853  150.4836  142.9834 C   0  0  0  0  0  0  0  0  0  0  0  0
  136.2536  150.8828  144.2319 C   0  0  0  0  0  0  0  0  0  0  0  0
  136.2375  150.0216  142.1636 C   0  0  0  0  0  0  0  0  0  0  0  0
  137.4563  151.4306  144.8584 C   0  0  0  0  0  0  0  0  0  0  0  0
  1  2  1  0
  2  3  2  0
  3  4  1  0
  2  5  1  0
  5  6  2  0
  4  7  1  0
  6  8  1  0
  6  9  1  0
  9 10  1  0
  4 11  2  0
  9 11  1  0
  8 12  1  0
 10 12  1  0
M  END
$$$$

     RDKit          3D

 12 13  0  0  0  0  0  0  0  0999 V2000
  138.9697  151.3146  142.5684 C   0  0  0  0  0  0  0  0  0  0  0  0
  138.6018  152.0883  143.2657 C   0  0  0  0  0  0  0  0  0  0  0  0
  139.7627  151.4691  141.3553 C   0  0  0  0  0  0  0  0  0  0  0  0
  137.5394  151.8374  144.3779 C   0  0  0  0  0  0  0  0  0  0  0  0
  137.4014  150.5805  144.6885 C   0  0  0  0  0  0  0  0  0  0  0  0
  139.6225  150.4855  140.3438 C   0  0  0  0  0  0  0  0  0  0  0  0
  138.7453  149.4536  140.7011 C   0  0  0  0  0  0  0  0  0  0  0  0
  137.7953  149.6232  141.6587 C   0  0  0  0  0  0  0  0  0  0  0  0
  138.0142  150.4015  142.7570 C   0  0  0  0  0  0  0  0  0  0  0  0
  136.8745  150.2146  146.0420 C   0  0  0  0  0  0  0  0  0  0  0  0
  137.4669  149.7856  143.6519 N   0  0  0  0  0  0  0  0  0  0  0  0
  140.5512  150.5380  139.3118 C   0  0  0  0  0  0  0  0  0  0  0  0
  1  2  1  0
  1  3  1  0
  2  4  1  0
  4  5  2  0
  3  6  2  0
  6  7  1  0
  7  8  2  0
  1  9  2  0
  8  9  1  0
  5 10  1  0
  5 11  1  0
  9 11  1  0
  6 12  1  0
M  END
$$$$

     RDKit          3D

 12 13  0  0  0  0  0  0  0  0999 V2000
  139.2620  151.0921  142.4039 C   0  0  0  0  0  0  0  0  0  0  0  0
  138.8618  152.1315  142.9023 C   0  0  0  0  0  0  0  0  0  0  0  0
  137.9130  151.7995  143.7812 C   0  0  0  0  0  0  0  0  0  0  0  0
  138.8259  150.3979  141.6057 C   0  0  0  0  0  0  0  0  0  0  0  0
  137.6638  149.9538  141.7688 C   0  0  0  0  0  0  0  0  0  0  0  0
  137.5091  152.6033  144.9557 C   0  0  0  0  0  0  0  0  0  0  0  0
  136.8131  150.7653  143.7756 C   0  0  0  0  0  0  0  0  0  0  0  0
  135.9244  150.8037  144.8950 C   0  0  0  0  0  0  0  0  0  0  0  0
  136.9542  149.4283  140.5394 C   0  0  0  0  0  0  0  0  0  0  0  0
  135.9804  151.7966  145.6582 C   0  0  0  0  0  0  0  0  0  0  0  0
  136.7531  150.0109  142.7418 N   0  0  0  0  0  0  0  0  0  0  0  0
  136.7374  152.6981  145.6935 C   0  0  0  0  0  0  0  0  0  0  0  0
  1  2  1  0
  2  3  2  0
  1  4  2  0
  4  5  1  0
  3  6  1  0
  3  7  1  0
  7  8  2  0
  5  9  1  0
  8 10  1  0
  5 11  2  0
  7 11  1  0
  6 12  2  0
 10 12  2  0
M  END
$$$$

     RDKit          3D

 12 13  0  0  0  0  0  0  0  0999 V2000
  138.9697  151.3146  142.5684 C   0  0  0  0  0  0  0  0  0  0  0  0
  138.6018  152.0883  143.2657 C   0  0  0  0  0  0  0  0  0  0  0  0
  137.6687  151.8115  144.0583 C   0  0  0  0  0  0  0  0  0  0  0  0
  139.9926  151.3705  141.4268 C   0  0  0  0  0  0  0  0  0  0  0  0
  137.5512  150.6294  144.9277 C   0  0  0  0  0  0  0  0  0  0  0  0
  139.6588  150.7358  140.2572 C   0  0  0  0  0  0  0  0  0  0  0  0
  138.5025  150.0408  140.2323 C   0  0  0  0  0  0  0  0  0  0  0  0
  137.6103  149.8214  141.4294 C   0  0  0  0  0  0  0  0  0  0  0  0
  137.9847  150.3939  142.6050 C   0  0  0  0  0  0  0  0  0  0  0  0
  137.4435  149.7888  143.7461 C   0  0  0  0  0  0  0  0  0  0  0  0
  140.7139  150.7166  139.2610 C   0  0  0  0  0  0  0  0  0  0  0  0
  138.1200  149.7134  138.9964 O   0  0  0  0  0  0  0  0  0  0  0  0
  1  2  2  0
  2  3  1  0
  1  4  1  0
  3  5  2  0
  4  6  2  0
  6  7  1  0
  7  8  1  0
  1  9  1  0
  8  9  1  0
  5 10  1  0
  9 10  2  0
  6 11  1  0
  7 12  2  0
M  END
$$$$

     RDKit          3D

 12 13  0  0  0  0  0  0  0  0999 V2000
  140.3019  150.2145  139.4802 Cl  0  0  0  0  0  0  0  0  0  0  0  0
  138.6758  150.1820  140.5311 C   0  0  0  0  0  0  0  0  0  0  0  0
  137.6364  149.3800  140.0902 C   0  0  0  0  0  0  0  0  0  0  0  0
  136.4360  149.4525  140.8154 C   0  0  0  0  0  0  0  0  0  0  0  0
  139.1314  150.7497  141.5093 C   0  0  0  0  0  0  0  0  0  0  0  0
  138.1131  150.7916  142.6542 C   0  0  0  0  0  0  0  0  0  0  0  0
  135.1492  149.2317  140.4372 C   0  0  0  0  0  0  0  0  0  0  0  0
  138.4196  151.3905  143.9383 C   0  0  0  0  0  0  0  0  0  0  0  0
  136.7853  150.4836  142.9834 N   0  0  0  0  0  0  0  0  0  0  0  0
  136.2610  150.8697  144.2731 C   0  0  0  0  0  0  0  0  0  0  0  0
  136.2818  150.0511  142.1740 C   0  0  0  0  0  0  0  0  0  0  0  0
  137.3329  151.3454  144.7343 C   0  0  0  0  0  0  0  0  0  0  0  0
  1  2  1  0
  2  3  2  0
  3  4  1  0
  2  5  1  0
  5  6  2  0
  4  7  1  0
  6  8  1  0
  6  9  1  0
  9 10  1  0
  4 11  2  0
  9 11  1  0
  8 12  2  0
 10 12  1  0
M  END
$$$$

     RDKit          3D

 12 13  0  0  0  0  0  0  0  0999 V2000
  140.3019  150.2145  139.4802 Cl  0  0  0  0  0  0  0  0  0  0  0  0
  138.6758  150.1820  140.5311 C   0  0  0  0  0  0  0  0  0  0  0  0
  137.6364  149.3800  140.0902 C   0  0  0  0  0  0  0  0  0  0  0  0
  138.8645  150.7144  141.4528 C   0  0  0  0  0  0  0  0  0  0  0  0
  137.8186  150.7977  142.5169 C   0  0  0  0  0  0  0  0  0  0  0  0
  138.0486  151.4509  143.8211 C   0  0  0  0  0  0  0  0  0  0  0  0
  136.6997  150.0744  142.0183 C   0  0  0  0  0  0  0  0  0  0  0  0
  136.9142  151.6355  144.5807 C   0  0  0  0  0  0  0  0  0  0  0  0
  135.5228  150.3517  142.8943 C   0  0  0  0  0  0  0  0  0  0  0  0
  135.6487  151.0316  144.2016 C   0  0  0  0  0  0  0  0  0  0  0  0
  137.0289  152.3267  145.7825 C   0  0  0  0  0  0  0  0  0  0  0  0
  136.5285  149.5357  140.8248 C   0  0  0  0  0  0  0  0  0  0  0  0
  1  2  1  0
  2  3  2  0
  2  4  1  0
  4  5  2  0
  5  6  1  0
  5  7  1  0
  6  8  1  0
  7  9  1  0
  8 10  1  0
  9 10  1  0
  8 11  2  0
  3 12  1  0
  7 12  2  0
M  END
$$$$

     RDKit          3D

 12 13  0  0  0  0  0  0  0  0999 V2000
  138.9697  151.3146  142.5684 C   0  0  0  0  0  0  0  0  0  0  0  0
  138.6018  152.0883  143.2657 C   0  0  0  0  0  0  0  0  0  0  0  0
  139.7627  151.4691  141.3553 C   0  0  0  0  0  0  0  0  0  0  0  0
  137.5394  151.8374  144.3779 C   0  0  0  0  0  0  0  0  0  0  0  0
  137.4014  150.5805  144.6885 C   0  0  0  0  0  0  0  0  0  0  0  0
  139.6225  150.4855  140.3438 C   0  0  0  0  0  0  0  0  0  0  0  0
  138.7453  149.4536  140.7011 C   0  0  0  0  0  0  0  0  0  0  0  0
  138.3245  148.6198  139.5102 C   0  0  0  0  0  0  0  0  0  0  0  0
  138.1863  150.0155  142.6588 C   0  0  0  0  0  0  0  0  0  0  0  0
  136.6928  150.1819  145.8807 C   0  0  0  0  0  0  0  0  0  0  0  0
  137.5872  149.6513  143.5828 C   0  0  0  0  0  0  0  0  0  0  0  0
  138.2048  149.2293  141.8165 N   0  0  0  0  0  0  0  0  0  0  0  0
  1  2  1  0
  1  3  1  0
  2  4  1  0
  4  5  2  0
  3  6  2  0
  6  7  1  0
  7  8  1  0
  1  9  2  0
  5 10  1  0
  5 11  1  0
  9 11  1  0
  7 12  2  0
  9 12  1  0
M  END
$$$$

     RDKit          3D

 12 13  0  0  0  0  0  0  0  0999 V2000
  138.7086  151.1469  142.6266 C   0  0  0  0  0  0  0  0  0  0  0  0
  138.5250  151.9368  143.5112 C   0  0  0  0  0  0  0  0  0  0  0  0
  137.3811  151.6572  144.3961 C   0  0  0  0  0  0  0  0  0  0  0  0
  139.7008  151.1089  141.6121 C   0  0  0  0  0  0  0  0  0  0  0  0
  139.6260  150.4243  140.3624 C   0  0  0  0  0  0  0  0  0  0  0  0
  138.4083  149.6133  140.3617 C   0  0  0  0  0  0  0  0  0  0  0  0
  137.5986  150.0970  142.5687 C   0  0  0  0  0  0  0  0  0  0  0  0
  140.7389  150.6779  139.4955 C   0  0  0  0  0  0  0  0  0  0  0  0
  137.4868  149.6376  141.1883 C   0  0  0  0  0  0  0  0  0  0  0  0
  136.7942  150.3530  143.6432 N   0  0  0  0  0  0  0  0  0  0  0  0
  136.8272  152.0975  145.4561 C   0  0  0  0  0  0  0  0  0  0  0  0
  135.5215  151.9582  145.6916 C   0  0  0  0  0  0  0  0  0  0  0  0
  1  2  1  0
  2  3  2  0
  1  4  1  0
  4  5  2  0
  5  6  1  0
  1  7  2  0
  5  8  1  0
  6  9  2  0
  7  9  1  0
  3 10  1  0
  7 10  1  0
  3 11  1  0
 11 12  1  0
M  END
$$$$

     RDKit          3D

 12 12  0  0  0  0  0  0  0  0999 V2000
  138.7086  151.1469  142.6266 C   0  0  0  0  0  0  0  0  0  0  0  0
  138.5250  151.9368  143.5112 C   0  0  0  0  0  0  0  0  0  0  0  0
  137.3811  151.6572  144.3961 C   0  0  0  0  0  0  0  0  0  0  0  0
  139.7008  151.1089  141.6121 C   0  0  0  0  0  0  0  0  0  0  0  0
  136.7115  150.4275  144.0247 C   0  0  0  0  0  0  0  0  0  0  0  0
  139.4933  150.4714  140.3262 C   0  0  0  0  0  0  0  0  0  0  0  0
  138.3034  149.7102  140.4068 C   0  0  0  0  0  0  0  0  0  0  0  0
  137.7401  150.0401  142.1735 C   0  0  0  0  0  0  0  0  0  0  0  0
  137.4409  149.5039  141.3032 C   0  0  0  0  0  0  0  0  0  0  0  0
  136.7498  149.8527  143.3175 C   0  0  0  0  0  0  0  0  0  0  0  0
  140.5553  150.7105  139.4578 C   0  0  0  0  0  0  0  0  0  0  0  0
  135.8598  150.6045  145.5240 C   0  0  0  0  0  0  0  0  0  0  0  0
  1  2  1  0
  2  3  2  3
  1  4  1  0
  3  5  1  0
  4  6  2  0
  6  7  1  0
  1  8  2  0
  7  9  2  0
  8  9  1  0
  8 10  1  0
  6 11  1  0
  5 12  1  0
M  END
$$$$

     RDKit          3D

 12 13  0  0  0  0  0  0  0  0999 V2000
  140.3019  150.2145  139.4802 Cl  0  0  0  0  0  0  0  0  0  0  0  0
  138.6758  150.1820  140.5311 C   0  0  0  0  0  0  0  0  0  0  0  0
  137.6364  149.3800  140.0902 C   0  0  0  0  0  0  0  0  0  0  0  0
  139.0293  150.8783  141.6179 C   0  0  0  0  0  0  0  0  0  0  0  0
  138.0425  150.8315  142.6892 C   0  0  0  0  0  0  0  0  0  0  0  0
  136.5405  149.3927  141.0819 C   0  0  0  0  0  0  0  0  0  0  0  0
  138.2152  151.4814  143.9531 C   0  0  0  0  0  0  0  0  0  0  0  0
  137.1198  151.7168  144.7502 C   0  0  0  0  0  0  0  0  0  0  0  0
  135.9476  151.1178  144.3541 C   0  0  0  0  0  0  0  0  0  0  0  0
  136.7396  150.3366  142.2217 C   0  0  0  0  0  0  0  0  0  0  0  0
  134.8298  151.4154  145.2434 C   0  0  0  0  0  0  0  0  0  0  0  0
  135.6285  150.5055  143.2023 N   0  0  0  0  0  0  0  0  0  0  0  0
  1  2  1  0
  2  3  2  0
  2  4  1  0
  4  5  2  0
  3  6  1  0
  5  7  1  0
  7  8  2  0
  8  9  1  0
  5 10  1  0
  6 10  2  0
  9 11  1  0
  9 12  2  0
 10 12  1  0
M  END
$$$$

     RDKit          3D

 12 13  0  0  0  0  0  0  0  0999 V2000
  139.2620  151.0921  142.4039 C   0  0  0  0  0  0  0  0  0  0  0  0
  138.8618  152.1315  142.9023 C   0  0  0  0  0  0  0  0  0  0  0  0
  137.7838  151.8936  143.8932 C   0  0  0  0  0  0  0  0  0  0  0  0
  137.3596  150.5423  144.0627 C   0  0  0  0  0  0  0  0  0  0  0  0
  136.3232  150.4823  145.1226 C   0  0  0  0  0  0  0  0  0  0  0  0
  139.2662  149.7547  142.8065 C   0  0  0  0  0  0  0  0  0  0  0  0
  138.1300  149.4969  143.5633 C   0  0  0  0  0  0  0  0  0  0  0  0
  140.3208  151.2825  141.2610 C   0  0  0  0  0  0  0  0  0  0  0  0
  139.9126  150.4639  140.0100 C   0  0  0  0  0  0  0  0  0  0  0  0
  135.7591  151.6218  145.4001 C   0  0  0  0  0  0  0  0  0  0  0  0
  137.1524  152.8988  144.6330 C   0  0  0  0  0  0  0  0  0  0  0  0
  136.1549  152.8139  145.3421 C   0  0  0  0  0  0  0  0  0  0  0  0
  1  2  1  0
  2  3  2  0
  3  4  1  0
  4  5  2  0
  1  6  1  0
  4  7  1  0
  6  7  2  0
  1  8  1  0
  8  9  1  0
  5 10  1  0
  3 11  1  0
 10 12  2  0
 11 12  2  0
M  END
$$$$

     RDKit          3D

 12 12  0  0  0  0  0  0  0  0999 V2000
  140.3019  150.2145  139.4802 Cl  0  0  0  0  0  0  0  0  0  0  0  0
  138.6758  150.1820  140.5311 C   0  0  0  0  0  0  0  0  0  0  0  0
  137.6364  149.3800  140.0902 C   0  0  0  0  0  0  0  0  0  0  0  0
  138.8645  150.7144  141.4528 C   0  0  0  0  0  0  0  0  0  0  0  0
  136.5623  149.5846  140.7692 C   0  0  0  0  0  0  0  0  0  0  0  0
  135.2780  149.0429  140.1877 C   0  0  0  0  0  0  0  0  0  0  0  0
  136.5970  150.4486  141.8282 C   0  0  0  0  0  0  0  0  0  0  0  0
  137.7094  150.9664  142.3471 C   0  0  0  0  0  0  0  0  0  0  0  0
  137.7413  151.7697  143.5768 C   0  0  0  0  0  0  0  0  0  0  0  0
  136.6851  151.6752  144.4641 C   0  0  0  0  0  0  0  0  0  0  0  0
  136.2610  150.6365  144.9393 C   0  0  0  0  0  0  0  0  0  0  0  0
  136.5258  152.8990  145.3278 C   0  0  0  0  0  0  0  0  0  0  0  0
  1  2  1  0
  2  3  2  0
  2  4  1  0
  3  5  1  0
  5  6  1  0
  5  7  2  0
  4  8  2  0
  7  8  1  0
  8  9  1  0
  9 10  1  0
 10 11  2  0
 10 12  1  0
M  END
$$$$

     RDKit          3D

 12 13  0  0  0  0  0  0  0  0999 V2000
  138.7086  151.1469  142.6266 C   0  0  0  0  0  0  0  0  0  0  0  0
  138.5250  151.9368  143.5112 C   0  0  0  0  0  0  0  0  0  0  0  0
  137.3811  151.6572  144.3961 C   0  0  0  0  0  0  0  0  0  0  0  0
  139.7008  151.1089  141.6121 C   0  0  0  0  0  0  0  0  0  0  0  0
  139.6260  150.4243  140.3624 C   0  0  0  0  0  0  0  0  0  0  0  0
  138.4083  149.6133  140.3617 C   0  0  0  0  0  0  0  0  0  0  0  0
  137.5986  150.0970  142.5687 C   0  0  0  0  0  0  0  0  0  0  0  0
  136.5953  150.6846  144.0292 C   0  0  0  0  0  0  0  0  0  0  0  0
  140.4825  150.3888  139.2680 C   0  0  0  0  0  0  0  0  0  0  0  0
  137.0495  152.4011  145.6361 C   0  0  0  0  0  0  0  0  0  0  0  0
  137.3501  149.3579  141.4854 N   0  0  0  0  0  0  0  0  0  0  0  0
  135.6538  152.3379  146.0319 C   0  0  0  0  0  0  0  0  0  0  0  0
  1  2  1  0
  2  3  2  0
  1  4  1  0
  4  5  2  0
  5  6  1  0
  1  7  2  0
  3  8  1  0
  7  8  1  0
  5  9  1  0
  3 10  1  0
  6 11  2  0
  7 11  1  0
 10 12  1  0
M  END
$$$$

     RDKit          3D

 12 13  0  0  0  0  0  0  0  0999 V2000
  138.9697  151.3146  142.5684 C   0  0  0  0  0  0  0  0  0  0  0  0
  138.6018  152.0883  143.2657 C   0  0  0  0  0  0  0  0  0  0  0  0
  139.7627  151.4691  141.3553 C   0  0  0  0  0  0  0  0  0  0  0  0
  137.5394  151.8374  144.3779 C   0  0  0  0  0  0  0  0  0  0  0  0
  137.4014  150.5805  144.6885 C   0  0  0  0  0  0  0  0  0  0  0  0
  139.6225  150.4855  140.3438 C   0  0  0  0  0  0  0  0  0  0  0  0
  138.7453  149.4536  140.7011 C   0  0  0  0  0  0  0  0  0  0  0  0
  138.3245  148.6198  139.5102 C   0  0  0  0  0  0  0  0  0  0  0  0
  138.1863  150.0155  142.6588 C   0  0  0  0  0  0  0  0  0  0  0  0
  136.6928  150.1819  145.8807 C   0  0  0  0  0  0  0  0  0  0  0  0
  137.9982  149.2955  141.8126 C   0  0  0  0  0  0  0  0  0  0  0  0
  137.6552  149.7460  144.0170 N   0  0  0  0  0  0  0  0  0  0  0  0
  1  2  1  0
  1  3  1  0
  2  4  1  0
  4  5  2  0
  3  6  2  0
  6  7  1  0
  7  8  1  0
  1  9  2  0
  5 10  1  0
  7 11  2  0
  9 11  1  0
  5 12  1  0
  9 12  1  0
M  END
$$$$

     RDKit          3D

 12 13  0  0  0  0  0  0  0  0999 V2000
  139.2620  151.0921  142.4039 C   0  0  0  0  0  0  0  0  0  0  0  0
  138.8618  152.1315  142.9023 C   0  0  0  0  0  0  0  0  0  0  0  0
  137.9130  151.7995  143.7812 C   0  0  0  0  0  0  0  0  0  0  0  0
  138.8259  150.3979  141.6057 C   0  0  0  0  0  0  0  0  0  0  0  0
  137.6638  149.9538  141.7688 C   0  0  0  0  0  0  0  0  0  0  0  0
  137.5091  152.6033  144.9557 C   0  0  0  0  0  0  0  0  0  0  0  0
  136.8131  150.7653  143.7756 C   0  0  0  0  0  0  0  0  0  0  0  0
  135.9244  150.8037  144.8950 C   0  0  0  0  0  0  0  0  0  0  0  0
  136.9542  149.4283  140.5394 C   0  0  0  0  0  0  0  0  0  0  0  0
  135.9804  151.7966  145.6582 C   0  0  0  0  0  0  0  0  0  0  0  0
  136.7986  150.0788  142.6723 N   0  0  0  0  0  0  0  0  0  0  0  0
  136.7609  152.7952  145.7943 C   0  0  0  0  0  0  0  0  0  0  0  0
  1  2  1  0
  2  3  2  0
  1  4  2  0
  4  5  1  0
  3  6  1  0
  3  7  1  0
  7  8  2  0
  5  9  1  0
  8 10  1  0
  5 11  2  0
  7 11  1  0
  6 12  1  0
 10 12  1  0
M  END
$$$$

     RDKit          3D

 12 13  0  0  0  0  0  0  0  0999 V2000
  140.3019  150.2145  139.4802 Cl  0  0  0  0  0  0  0  0  0  0  0  0
  138.6758  150.1820  140.5311 C   0  0  0  0  0  0  0  0  0  0  0  0
  137.6364  149.3800  140.0902 C   0  0  0  0  0  0  0  0  0  0  0  0
  138.8645  150.7144  141.4528 C   0  0  0  0  0  0  0  0  0  0  0  0
  136.5623  149.5846  140.7692 C   0  0  0  0  0  0  0  0  0  0  0  0
  136.4105  150.3672  141.9090 C   0  0  0  0  0  0  0  0  0  0  0  0
  135.2467  150.5950  142.7376 C   0  0  0  0  0  0  0  0  0  0  0  0
  137.6633  151.0025  142.3890 C   0  0  0  0  0  0  0  0  0  0  0  0
  137.6911  151.7321  143.7098 C   0  0  0  0  0  0  0  0  0  0  0  0
  135.6860  151.2818  143.8842 C   0  0  0  0  0  0  0  0  0  0  0  0
  134.3660  151.5269  144.9084 Cl  0  0  0  0  0  0  0  0  0  0  0  0
  136.7779  151.8673  144.4538 C   0  0  0  0  0  0  0  0  0  0  0  0
  1  2  1  0
  2  3  2  0
  2  4  1  0
  3  5  1  0
  5  6  2  0
  6  7  1  0
  4  8  2  0
  6  8  1  0
  8  9  1  0
  7 10  2  0
 10 11  1  0
  9 12  2  0
 10 12  1  0
M  END
$$$$

     RDKit          3D

 12 12  0  0  0  0  0  0  0  0999 V2000
  139.0010  149.7643  140.3643 C   0  0  0  0  0  0  0  0  0  0  0  0
  138.7144  149.5449  139.1247 C   0  0  0  0  0  0  0  0  0  0  0  0
  138.1840  150.1020  141.2852 C   0  0  0  0  0  0  0  0  0  0  0  0
  139.6385  149.1413  138.0959 C   0  0  0  0  0  0  0  0  0  0  0  0
  136.6881  150.0305  141.1796 C   0  0  0  0  0  0  0  0  0  0  0  0
  135.7984  150.1278  142.2481 C   0  0  0  0  0  0  0  0  0  0  0  0
  136.4562  150.6806  143.3963 C   0  0  0  0  0  0  0  0  0  0  0  0
  135.7469  151.0481  144.6522 C   0  0  0  0  0  0  0  0  0  0  0  0
  136.1660  152.3400  145.2923 C   0  0  0  0  0  0  0  0  0  0  0  0
  135.2191  152.8828  146.2027 C   0  0  0  0  0  0  0  0  0  0  0  0
  137.9537  150.9342  143.4741 C   0  0  0  0  0  0  0  0  0  0  0  0
  138.7282  150.6729  142.5208 C   0  0  0  0  0  0  0  0  0  0  0  0
  1  2  2  3
  1  3  1  0
  2  4  1  0
  3  5  2  0
  5  6  1  0
  6  7  2  0
  7  8  1  0
  8  9  1  0
  9 10  1  0
  7 11  1  0
  3 12  1  0
 11 12  1  0
M  END
$$$$

     RDKit          3D

 12 12  0  0  0  0  0  0  0  0999 V2000
  139.0010  149.7643  140.3643 C   0  0  0  0  0  0  0  0  0  0  0  0
  138.7144  149.5449  139.1247 C   0  0  0  0  0  0  0  0  0  0  0  0
  138.1840  150.1020  141.2852 C   0  0  0  0  0  0  0  0  0  0  0  0
  139.6385  149.1413  138.0959 C   0  0  0  0  0  0  0  0  0  0  0  0
  136.6881  150.0305  141.1796 C   0  0  0  0  0  0  0  0  0  0  0  0
  135.7984  150.1278  142.2481 C   0  0  0  0  0  0  0  0  0  0  0  0
  136.4562  150.6806  143.3963 C   0  0  0  0  0  0  0  0  0  0  0  0
  135.7469  151.0481  144.6522 C   0  0  0  0  0  0  0  0  0  0  0  0
  136.1660  152.3400  145.2923 C   0  0  0  0  0  0  0  0  0  0  0  0
  135.2191  152.8828  146.2027 C   0  0  0  0  0  0  0  0  0  0  0  0
  137.9537  150.9342  143.4741 C   0  0  0  0  0  0  0  0  0  0  0  0
  138.8226  150.7565  142.5633 C   0  0  0  0  0  0  0  0  0  0  0  0
  1  2  2  3
  1  3  1  0
  2  4  1  0
  3  5  2  0
  5  6  1  0
  6  7  2  0
  7  8  1  0
  8  9  1  0
  9 10  1  0
  7 11  1  0
  3 12  1  0
 11 12  2  0
M  END
$$$$

     RDKit          3D

 12 13  0  0  0  0  0  0  0  0999 V2000
  140.3019  150.2145  139.4802 Cl  0  0  0  0  0  0  0  0  0  0  0  0
  138.6758  150.1820  140.5311 C   0  0  0  0  0  0  0  0  0  0  0  0
  137.6364  149.3800  140.0902 C   0  0  0  0  0  0  0  0  0  0  0  0
  136.4360  149.4525  140.8154 C   0  0  0  0  0  0  0  0  0  0  0  0
  139.1314  150.7497  141.5093 C   0  0  0  0  0  0  0  0  0  0  0  0
  138.1131  150.7916  142.6542 C   0  0  0  0  0  0  0  0  0  0  0  0
  135.1492  149.2317  140.4372 C   0  0  0  0  0  0  0  0  0  0  0  0
  138.4196  151.3905  143.9383 C   0  0  0  0  0  0  0  0  0  0  0  0
  136.7853  150.4836  142.9834 N   0  0  0  0  0  0  0  0  0  0  0  0
  136.2610  150.8697  144.2731 C   0  0  0  0  0  0  0  0  0  0  0  0
  135.8539  149.8186  141.8773 C   0  0  0  0  0  0  0  0  0  0  0  0
  137.4307  151.4127  144.8858 C   0  0  0  0  0  0  0  0  0  0  0  0
  1  2  1  0
  2  3  2  0
  3  4  1  0
  2  5  1  0
  5  6  2  0
  4  7  1  0
  6  8  1  0
  6  9  1  0
  9 10  1  0
  4 11  1  0
  9 11  1  0
  8 12  1  0
 10 12  1  0
M  END
$$$$

     RDKit          3D

 12 12  0  0  0  0  0  0  0  0999 V2000
  138.9697  151.3146  142.5684 C   0  0  0  0  0  0  0  0  0  0  0  0
  138.6018  152.0883  143.2657 C   0  0  0  0  0  0  0  0  0  0  0  0
  137.4864  151.7371  144.1980 C   0  0  0  0  0  0  0  0  0  0  0  0
  139.9864  151.4011  141.4219 C   0  0  0  0  0  0  0  0  0  0  0  0
  139.7068  150.7354  140.2267 C   0  0  0  0  0  0  0  0  0  0  0  0
  138.4808  149.8562  142.3647 C   0  0  0  0  0  0  0  0  0  0  0  0
  137.2037  150.4273  144.3413 C   0  0  0  0  0  0  0  0  0  0  0  0
  138.7871  149.7780  140.0794 C   0  0  0  0  0  0  0  0  0  0  0  0
  136.6054  152.5478  145.0308 C   0  0  0  0  0  0  0  0  0  0  0  0
  137.3554  149.4255  141.7854 C   0  0  0  0  0  0  0  0  0  0  0  0
  137.7124  149.2261  140.6063 C   0  0  0  0  0  0  0  0  0  0  0  0
  135.4375  152.0592  145.4701 C   0  0  0  0  0  0  0  0  0  0  0  0
  1  2  1  0
  2  3  2  3
  1  4  1  0
  4  5  2  0
  1  6  2  0
  3  7  1  0
  5  8  1  0
  3  9  1  0
  6 10  1  0
  8 11  2  0
 10 11  1  0
  9 12  1  0
M  END
$$$$

     RDKit          3D

 12 13  0  0  0  0  0  0  0  0999 V2000
  140.3019  150.2145  139.4802 Cl  0  0  0  0  0  0  0  0  0  0  0  0
  138.6758  150.1820  140.5311 C   0  0  0  0  0  0  0  0  0  0  0  0
  137.6364  149.3800  140.0902 C   0  0  0  0  0  0  0  0  0  0  0  0
  136.4360  149.4525  140.8154 C   0  0  0  0  0  0  0  0  0  0  0  0
  138.9773  150.6955  141.6819 C   0  0  0  0  0  0  0  0  0  0  0  0
  136.5018  150.3461  141.8117 C   0  0  0  0  0  0  0  0  0  0  0  0
  135.2689  150.6056  142.7086 C   0  0  0  0  0  0  0  0  0  0  0  0
  135.7271  151.2590  143.9921 C   0  0  0  0  0  0  0  0  0  0  0  0
  137.7105  150.8860  142.4731 C   0  0  0  0  0  0  0  0  0  0  0  0
  134.9882  151.8604  144.9274 C   0  0  0  0  0  0  0  0  0  0  0  0
  135.4702  152.4416  146.0149 C   0  0  0  0  0  0  0  0  0  0  0  0
  137.5668  151.5193  143.8344 S   0  0  0  0  0  0  0  0  0  0  0  0
  1  2  1  0
  2  3  2  0
  3  4  1  0
  2  5  1  0
  4  6  2  0
  6  7  1  0
  7  8  1  0
  5  9  2  0
  6  9  1  0
  8 10  1  0
 10 11  2  0
  8 12  2  0
  9 12  1  0
M  END
$$$$

     RDKit          3D

 12 13  0  0  0  0  0  0  0  0999 V2000
  140.3019  150.2145  139.4802 Cl  0  0  0  0  0  0  0  0  0  0  0  0
  138.6758  150.1820  140.5311 C   0  0  0  0  0  0  0  0  0  0  0  0
  137.6364  149.3800  140.0902 C   0  0  0  0  0  0  0  0  0  0  0  0
  136.4360  149.4525  140.8154 C   0  0  0  0  0  0  0  0  0  0  0  0
  139.1314  150.7497  141.5093 C   0  0  0  0  0  0  0  0  0  0  0  0
  138.1131  150.7916  142.6542 C   0  0  0  0  0  0  0  0  0  0  0  0
  135.1492  149.2317  140.4372 C   0  0  0  0  0  0  0  0  0  0  0  0
  138.4196  151.3905  143.9383 C   0  0  0  0  0  0  0  0  0  0  0  0
  136.7853  150.4836  142.9834 C   0  0  0  0  0  0  0  0  0  0  0  0
  136.2536  150.8828  144.2319 C   0  0  0  0  0  0  0  0  0  0  0  0
  135.9618  150.0201  141.9621 C   0  0  0  0  0  0  0  0  0  0  0  0
  137.3600  151.2911  144.7357 N   0  0  0  0  0  0  0  0  0  0  0  0
  1  2  1  0
  2  3  2  0
  3  4  1  0
  2  5  1  0
  5  6  2  0
  4  7  1  0
  6  8  1  0
  6  9  1  0
  9 10  1  0
  4 11  1  0
  9 11  1  0
  8 12  1  0
 10 12  2  0
M  END
$$$$

     RDKit          3D

 12 13  0  0  0  0  0  0  0  0999 V2000
  138.9697  151.3146  142.5684 C   0  0  0  0  0  0  0  0  0  0  0  0
  138.6018  152.0883  143.2657 C   0  0  0  0  0  0  0  0  0  0  0  0
  137.4864  151.7371  144.1980 C   0  0  0  0  0  0  0  0  0  0  0  0
  139.9864  151.4011  141.4219 C   0  0  0  0  0  0  0  0  0  0  0  0
  139.7068  150.7354  140.2267 C   0  0  0  0  0  0  0  0  0  0  0  0
  138.4808  149.8562  142.3647 C   0  0  0  0  0  0  0  0  0  0  0  0
  137.2037  150.4273  144.3413 C   0  0  0  0  0  0  0  0  0  0  0  0
  138.7871  149.7780  140.0794 C   0  0  0  0  0  0  0  0  0  0  0  0
  140.8327  151.1412  139.2751 C   0  0  0  0  0  0  0  0  0  0  0  0
  138.2797  149.3204  138.9377 C   0  0  0  0  0  0  0  0  0  0  0  0
  137.5598  149.5215  143.3626 C   0  0  0  0  0  0  0  0  0  0  0  0
  138.0795  149.4750  141.2110 N   0  0  0  0  0  0  0  0  0  0  0  0
  1  2  1  0
  2  3  2  0
  1  4  1  0
  4  5  2  0
  1  6  2  0
  3  7  1  0
  5  8  1  0
  5  9  1  0
  8 10  1  0
  6 11  1  0
  7 11  2  0
  6 12  1  0
  8 12  2  0
M  END
$$$$

     RDKit          3D

 12 12  0  0  0  0  0  0  0  0999 V2000
  138.9697  151.3146  142.5684 C   0  0  0  0  0  0  0  0  0  0  0  0
  138.6018  152.0883  143.2657 C   0  0  0  0  0  0  0  0  0  0  0  0
  139.7627  151.4691  141.3553 C   0  0  0  0  0  0  0  0  0  0  0  0
  137.7629  151.7021  144.3622 C   0  0  0  0  0  0  0  0  0  0  0  0
  136.8760  152.4884  145.1644 C   0  0  0  0  0  0  0  0  0  0  0  0
  137.0828  153.8003  145.1271 C   0  0  0  0  0  0  0  0  0  0  0  0
  135.7474  152.0603  145.7143 C   0  0  0  0  0  0  0  0  0  0  0  0
  139.5959  150.5273  140.2657 C   0  0  0  0  0  0  0  0  0  0  0  0
  138.6208  149.5233  140.6187 C   0  0  0  0  0  0  0  0  0  0  0  0
  138.0520  148.8017  139.4487 C   0  0  0  0  0  0  0  0  0  0  0  0
  134.7210  152.6762  145.9039 C   0  0  0  0  0  0  0  0  0  0  0  0
  137.9968  149.9273  141.7881 C   0  0  0  0  0  0  0  0  0  0  0  0
  1  2  1  0
  1  3  1  0
  2  4  2  3
  4  5  1  0
  5  6  1  0
  5  7  2  3
  3  8  2  0
  8  9  1  0
  9 10  1  0
  7 11  1  0
  1 12  1  0
  9 12  2  0
M  END
$$$$

     RDKit          3D

 12 13  0  0  0  0  0  0  0  0999 V2000
  139.3428  149.9936  140.5898 C   0  0  0  0  0  0  0  0  0  0  0  0
  138.9752  149.9369  139.3605 C   0  0  0  0  0  0  0  0  0  0  0  0
  138.5862  150.0774  141.6376 C   0  0  0  0  0  0  0  0  0  0  0  0
  137.6061  149.8652  139.0267 C   0  0  0  0  0  0  0  0  0  0  0  0
  139.0675  150.4813  142.9905 C   0  0  0  0  0  0  0  0  0  0  0  0
  138.0996  151.0358  143.9831 C   0  0  0  0  0  0  0  0  0  0  0  0
  136.7892  150.8977  143.5577 C   0  0  0  0  0  0  0  0  0  0  0  0
  136.8071  149.6351  140.1118 C   0  0  0  0  0  0  0  0  0  0  0  0
  137.1223  149.9423  141.4175 C   0  0  0  0  0  0  0  0  0  0  0  0
  136.2710  150.5259  142.6796 C   0  0  0  0  0  0  0  0  0  0  0  0
  135.8998  151.5420  144.7143 C   0  0  0  0  0  0  0  0  0  0  0  0
  136.1399  152.4078  145.4982 N   0  0  0  0  0  0  0  0  0  0  0  0
  1  2  2  0
  1  3  1  0
  2  4  1  0
  3  5  1  0
  5  6  2  0
  6  7  1  0
  4  8  2  0
  3  9  2  0
  8  9  1  0
  7 10  2  0
  9 10  1  0
  7 11  1  0
 11 12  2  0
M  END
$$$$

     RDKit          3D

 12 13  0  0  0  0  0  0  0  0999 V2000
  140.3019  150.2145  139.4802 Cl  0  0  0  0  0  0  0  0  0  0  0  0
  138.6758  150.1820  140.5311 C   0  0  0  0  0  0  0  0  0  0  0  0
  137.6364  149.3800  140.0902 C   0  0  0  0  0  0  0  0  0  0  0  0
  136.4360  149.4525  140.8154 C   0  0  0  0  0  0  0  0  0  0  0  0
  139.1314  150.7497  141.5093 C   0  0  0  0  0  0  0  0  0  0  0  0
  138.1131  150.7916  142.6542 C   0  0  0  0  0  0  0  0  0  0  0  0
  135.1492  149.2317  140.4372 C   0  0  0  0  0  0  0  0  0  0  0  0
  138.4196  151.3905  143.9383 C   0  0  0  0  0  0  0  0  0  0  0  0
  136.7853  150.4836  142.9834 C   0  0  0  0  0  0  0  0  0  0  0  0
  136.2536  150.8828  144.2319 C   0  0  0  0  0  0  0  0  0  0  0  0
  136.2375  150.0216  142.1636 C   0  0  0  0  0  0  0  0  0  0  0  0
  137.3756  151.3777  144.7042 C   0  0  0  0  0  0  0  0  0  0  0  0
  1  2  1  0
  2  3  2  0
  3  4  1  0
  2  5  1  0
  5  6  2  0
  4  7  1  0
  6  8  1  0
  6  9  1  0
  9 10  1  0
  4 11  2  0
  9 11  1  0
  8 12  1  0
 10 12  2  0
M  END
$$$$

     RDKit          3D

 12 13  0  0  0  0  0  0  0  0999 V2000
  140.3019  150.2145  139.4802 Cl  0  0  0  0  0  0  0  0  0  0  0  0
  138.6758  150.1820  140.5311 C   0  0  0  0  0  0  0  0  0  0  0  0
  137.6364  149.3800  140.0902 C   0  0  0  0  0  0  0  0  0  0  0  0
  136.4360  149.4525  140.8154 C   0  0  0  0  0  0  0  0  0  0  0  0
  139.1314  150.7497  141.5093 C   0  0  0  0  0  0  0  0  0  0  0  0
  138.1131  150.7916  142.6542 C   0  0  0  0  0  0  0  0  0  0  0  0
  135.1492  149.2317  140.4372 C   0  0  0  0  0  0  0  0  0  0  0  0
  138.4196  151.3905  143.9383 C   0  0  0  0  0  0  0  0  0  0  0  0
  136.7853  150.4836  142.9834 C   0  0  0  0  0  0  0  0  0  0  0  0
  136.1033  150.0266  142.1005 C   0  0  0  0  0  0  0  0  0  0  0  0
  136.2597  150.7690  144.2439 C   0  0  0  0  0  0  0  0  0  0  0  0
  137.1318  151.2966  144.8171 N   0  0  0  0  0  0  0  0  0  0  0  0
  1  2  1  0
  2  3  2  0
  3  4  1  0
  2  5  1  0
  5  6  2  0
  4  7  1  0
  6  8  1  0
  6  9  1  0
  4 10  1  0
  9 10  1  0
  9 11  2  0
  8 12  2  0
 11 12  1  0
M  END
$$$$

     RDKit          3D

 12 13  0  0  0  0  0  0  0  0999 V2000
  138.9697  151.3146  142.5684 C   0  0  0  0  0  0  0  0  0  0  0  0
  138.6018  152.0883  143.2657 C   0  0  0  0  0  0  0  0  0  0  0  0
  137.6374  151.6902  144.0814 C   0  0  0  0  0  0  0  0  0  0  0  0
  140.0289  151.3257  141.4197 C   0  0  0  0  0  0  0  0  0  0  0  0
  137.1948  150.3123  143.8930 C   0  0  0  0  0  0  0  0  0  0  0  0
  139.8113  150.4471  140.2754 C   0  0  0  0  0  0  0  0  0  0  0  0
  138.3589  149.9782  142.3814 C   0  0  0  0  0  0  0  0  0  0  0  0
  136.9986  152.5640  145.1732 C   0  0  0  0  0  0  0  0  0  0  0  0
  139.0500  149.5399  140.1678 C   0  0  0  0  0  0  0  0  0  0  0  0
  137.5333  149.5029  143.0701 N   0  0  0  0  0  0  0  0  0  0  0  0
  140.8005  150.7470  139.1860 C   0  0  0  0  0  0  0  0  0  0  0  0
  138.5560  149.1599  141.1824 N   0  0  0  0  0  0  0  0  0  0  0  0
  1  2  1  0
  2  3  2  0
  1  4  1  0
  3  5  1  0
  4  6  1  0
  1  7  2  0
  3  8  1  0
  6  9  1  0
  5 10  2  0
  7 10  1  0
  6 11  2  0
  7 12  1  0
  9 12  2  0
M  END
$$$$

     RDKit          3D

 12 12  0  0  0  0  0  0  0  0999 V2000
  138.9697  151.3146  142.5684 C   0  0  0  0  0  0  0  0  0  0  0  0
  138.6018  152.0883  143.2657 C   0  0  0  0  0  0  0  0  0  0  0  0
  137.4864  151.7371  144.1980 C   0  0  0  0  0  0  0  0  0  0  0  0
  139.9864  151.4011  141.4219 C   0  0  0  0  0  0  0  0  0  0  0  0
  136.7358  152.5376  145.0264 C   0  0  0  0  0  0  0  0  0  0  0  0
  137.0438  153.8716  145.0221 C   0  0  0  0  0  0  0  0  0  0  0  0
  139.6830  150.7211  140.1958 C   0  0  0  0  0  0  0  0  0  0  0  0
  138.5909  149.7770  140.3983 C   0  0  0  0  0  0  0  0  0  0  0  0
  137.8008  149.7759  141.6153 C   0  0  0  0  0  0  0  0  0  0  0  0
  135.5256  152.2962  145.3228 C   0  0  0  0  0  0  0  0  0  0  0  0
  138.0932  150.3015  142.4955 C   0  0  0  0  0  0  0  0  0  0  0  0
  135.1559  151.1851  145.9919 C   0  0  0  0  0  0  0  0  0  0  0  0
  1  2  1  0
  2  3  2  3
  1  4  1  0
  3  5  1  0
  5  6  1  0
  4  7  2  0
  7  8  1  0
  8  9  2  0
  5 10  2  3
  1 11  2  0
  9 11  1  0
 10 12  1  0
M  END
$$$$

     RDKit          3D

 12 12  0  0  0  0  0  0  0  0999 V2000
  139.0010  149.7643  140.3643 C   0  0  0  0  0  0  0  0  0  0  0  0
  138.7144  149.5449  139.1247 C   0  0  0  0  0  0  0  0  0  0  0  0
  138.1840  150.1020  141.2852 C   0  0  0  0  0  0  0  0  0  0  0  0
  139.6385  149.1413  138.0959 C   0  0  0  0  0  0  0  0  0  0  0  0
  136.6881  150.0305  141.1796 C   0  0  0  0  0  0  0  0  0  0  0  0
  135.7984  150.1278  142.2481 C   0  0  0  0  0  0  0  0  0  0  0  0
  136.4758  150.9552  143.1765 C   0  0  0  0  0  0  0  0  0  0  0  0
  135.7797  151.3460  144.4950 C   0  0  0  0  0  0  0  0  0  0  0  0
  135.5471  150.8711  145.4009 C   0  0  0  0  0  0  0  0  0  0  0  0
  137.9878  151.1174  143.0492 C   0  0  0  0  0  0  0  0  0  0  0  0
  138.4220  151.9319  144.4031 C   0  0  0  0  0  0  0  0  0  0  0  0
  138.6451  150.8176  142.3534 C   0  0  0  0  0  0  0  0  0  0  0  0
  1  2  2  3
  1  3  1  0
  2  4  1  0
  3  5  2  0
  5  6  1  0
  6  7  2  0
  7  8  1  0
  8  9  2  0
  7 10  1  0
 10 11  1  0
  3 12  1  0
 10 12  2  0
M  END
$$$$

     RDKit          3D

 12 13  0  0  0  0  0  0  0  0999 V2000
  138.9697  151.3146  142.5684 C   0  0  0  0  0  0  0  0  0  0  0  0
  138.6018  152.0883  143.2657 C   0  0  0  0  0  0  0  0  0  0  0  0
  137.4864  151.7371  144.1980 C   0  0  0  0  0  0  0  0  0  0  0  0
  139.9864  151.4011  141.4219 C   0  0  0  0  0  0  0  0  0  0  0  0
  139.7068  150.7354  140.2267 C   0  0  0  0  0  0  0  0  0  0  0  0
  138.4808  149.8562  142.3647 C   0  0  0  0  0  0  0  0  0  0  0  0
  137.2037  150.4273  144.3413 C   0  0  0  0  0  0  0  0  0  0  0  0
  138.7871  149.7780  140.0794 C   0  0  0  0  0  0  0  0  0  0  0  0
  140.8327  151.1412  139.2751 C   0  0  0  0  0  0  0  0  0  0  0  0
  138.0591  149.4122  141.1284 C   0  0  0  0  0  0  0  0  0  0  0  0
  137.1126  152.8718  145.0764 C   0  0  0  0  0  0  0  0  0  0  0  0
  137.8543  149.3742  143.5690 N   0  0  0  0  0  0  0  0  0  0  0  0
  1  2  1  0
  2  3  2  0
  1  4  1  0
  4  5  2  0
  1  6  2  0
  3  7  1  0
  5  8  1  0
  5  9  1  0
  6 10  1  0
  8 10  2  0
  3 11  1  0
  6 12  1  0
  7 12  1  0
M  END
$$$$

     RDKit          3D

 12 13  0  0  0  0  0  0  0  0999 V2000
  140.3019  150.2145  139.4802 Cl  0  0  0  0  0  0  0  0  0  0  0  0
  138.6758  150.1820  140.5311 C   0  0  0  0  0  0  0  0  0  0  0  0
  137.6364  149.3800  140.0902 C   0  0  0  0  0  0  0  0  0  0  0  0
  136.4360  149.4525  140.8154 C   0  0  0  0  0  0  0  0  0  0  0  0
  139.1314  150.7497  141.5093 C   0  0  0  0  0  0  0  0  0  0  0  0
  138.1131  150.7916  142.6542 C   0  0  0  0  0  0  0  0  0  0  0  0
  135.1492  149.2317  140.4372 C   0  0  0  0  0  0  0  0  0  0  0  0
  138.4196  151.3905  143.9383 C   0  0  0  0  0  0  0  0  0  0  0  0
  136.7853  150.4836  142.9834 N   0  0  0  0  0  0  0  0  0  0  0  0
  136.2610  150.8697  144.2731 C   0  0  0  0  0  0  0  0  0  0  0  0
  136.2818  150.0511  142.1740 C   0  0  0  0  0  0  0  0  0  0  0  0
  137.4337  151.3889  144.8675 C   0  0  0  0  0  0  0  0  0  0  0  0
  1  2  1  0
  2  3  2  0
  3  4  1  0
  2  5  1  0
  5  6  2  0
  4  7  1  0
  6  8  1  0
  6  9  1  0
  9 10  1  0
  4 11  2  0
  9 11  1  0
  8 12  2  0
 10 12  2  0
M  END
$$$$

     RDKit          3D

 12 13  0  0  0  0  0  0  0  0999 V2000
  139.2620  151.0921  142.4039 C   0  0  0  0  0  0  0  0  0  0  0  0
  138.8618  152.1315  142.9023 C   0  0  0  0  0  0  0  0  0  0  0  0
  137.7838  151.8936  143.8932 C   0  0  0  0  0  0  0  0  0  0  0  0
  137.3596  150.5423  144.0627 C   0  0  0  0  0  0  0  0  0  0  0  0
  136.3232  150.4823  145.1226 C   0  0  0  0  0  0  0  0  0  0  0  0
  139.2662  149.7547  142.8065 C   0  0  0  0  0  0  0  0  0  0  0  0
  138.1300  149.4969  143.5633 C   0  0  0  0  0  0  0  0  0  0  0  0
  135.7805  151.6674  145.3651 C   0  0  0  0  0  0  0  0  0  0  0  0
  134.8683  151.9355  146.3406 C   0  0  0  0  0  0  0  0  0  0  0  0
  135.9367  152.7330  144.6697 C   0  0  0  0  0  0  0  0  0  0  0  0
  137.0504  153.0567  144.2789 C   0  0  0  0  0  0  0  0  0  0  0  0
  140.0228  151.3724  140.9838 C   0  0  0  0  0  0  0  0  0  0  0  0
  1  2  1  0
  2  3  2  0
  3  4  1  0
  4  5  2  0
  1  6  1  0
  4  7  1  0
  6  7  2  0
  5  8  1  0
  8  9  1  0
  8 10  2  0
  3 11  1  0
 10 11  1  0
  1 12  1  0
M  END
$$$$

     RDKit          3D

 12 13  0  0  0  0  0  0  0  0999 V2000
  138.9697  151.3146  142.5684 C   0  0  0  0  0  0  0  0  0  0  0  0
  138.6018  152.0883  143.2657 C   0  0  0  0  0  0  0  0  0  0  0  0
  137.6374  151.6902  144.0814 C   0  0  0  0  0  0  0  0  0  0  0  0
  140.0289  151.3257  141.4197 C   0  0  0  0  0  0  0  0  0  0  0  0
  137.1948  150.3123  143.8930 C   0  0  0  0  0  0  0  0  0  0  0  0
  139.8113  150.4471  140.2754 C   0  0  0  0  0  0  0  0  0  0  0  0
  138.3146  149.9305  142.4430 C   0  0  0  0  0  0  0  0  0  0  0  0
  139.0457  149.5706  140.1138 C   0  0  0  0  0  0  0  0  0  0  0  0
  137.4674  149.5176  143.3232 C   0  0  0  0  0  0  0  0  0  0  0  0
  141.0150  150.9167  139.5382 C   0  0  0  0  0  0  0  0  0  0  0  0
  138.5620  149.1468  141.1831 N   0  0  0  0  0  0  0  0  0  0  0  0
  137.0782  152.6971  145.0564 C   0  0  0  0  0  0  0  0  0  0  0  0
  1  2  1  0
  2  3  2  0
  1  4  1  0
  3  5  1  0
  4  6  1  0
  1  7  2  0
  6  8  1  0
  5  9  2  0
  7  9  1  0
  6 10  2  0
  7 11  1  0
  8 11  2  0
  3 12  1  0
M  END
$$$$

     RDKit          3D

 12 13  0  0  0  0  0  0  0  0999 V2000
  140.3019  150.2145  139.4802 Cl  0  0  0  0  0  0  0  0  0  0  0  0
  138.6758  150.1820  140.5311 C   0  0  0  0  0  0  0  0  0  0  0  0
  137.6364  149.3800  140.0902 C   0  0  0  0  0  0  0  0  0  0  0  0
  139.0293  150.8783  141.6179 C   0  0  0  0  0  0  0  0  0  0  0  0
  136.6543  149.6401  140.8165 C   0  0  0  0  0  0  0  0  0  0  0  0
  138.0311  151.0105  142.5251 C   0  0  0  0  0  0  0  0  0  0  0  0
  138.1755  151.7013  143.8064 C   0  0  0  0  0  0  0  0  0  0  0  0
  137.1234  151.8706  144.6589 C   0  0  0  0  0  0  0  0  0  0  0  0
  136.6853  150.3819  142.1076 C   0  0  0  0  0  0  0  0  0  0  0  0
  135.9062  151.3811  144.4236 C   0  0  0  0  0  0  0  0  0  0  0  0
  135.5810  150.7117  143.0544 C   0  0  0  0  0  0  0  0  0  0  0  0
  134.9943  151.3651  145.1978 O   0  0  0  0  0  0  0  0  0  0  0  0
  1  2  1  0
  2  3  2  0
  2  4  1  0
  3  5  1  0
  4  6  2  0
  6  7  1  0
  7  8  2  0
  5  9  2  0
  6  9  1  0
  8 10  1  0
  9 11  1  0
 10 11  1  0
 10 12  2  0
M  END
$$$$

     RDKit          3D

 12 13  0  0  0  0  0  0  0  0999 V2000
  140.3019  150.2145  139.4802 Cl  0  0  0  0  0  0  0  0  0  0  0  0
  138.6758  150.1820  140.5311 C   0  0  0  0  0  0  0  0  0  0  0  0
  137.6364  149.3800  140.0902 C   0  0  0  0  0  0  0  0  0  0  0  0
  136.4360  149.4525  140.8154 C   0  0  0  0  0  0  0  0  0  0  0  0
  138.9773  150.6955  141.6819 C   0  0  0  0  0  0  0  0  0  0  0  0
  136.5018  150.3461  141.8117 C   0  0  0  0  0  0  0  0  0  0  0  0
  135.2689  150.6056  142.7086 C   0  0  0  0  0  0  0  0  0  0  0  0
  135.7271  151.2590  143.9921 C   0  0  0  0  0  0  0  0  0  0  0  0
  137.7486  150.9157  142.4479 C   0  0  0  0  0  0  0  0  0  0  0  0
  137.8032  151.5607  143.7866 C   0  0  0  0  0  0  0  0  0  0  0  0
  136.7492  151.6517  144.5876 C   0  0  0  0  0  0  0  0  0  0  0  0
  136.7222  152.2772  145.5003 O   0  0  0  0  0  0  0  0  0  0  0  0
  1  2  1  0
  2  3  2  0
  3  4  1  0
  2  5  1  0
  4  6  2  0
  6  7  1  0
  7  8  1  0
  5  9  2  0
  6  9  1  0
  9 10  1  0
  8 11  1  0
 10 11  1  0
 11 12  2  0
M  END
$$$$

     RDKit          3D

 12 13  0  0  0  0  0  0  0  0999 V2000
  139.2620  151.0921  142.4039 C   0  0  0  0  0  0  0  0  0  0  0  0
  138.8618  152.1315  142.9023 C   0  0  0  0  0  0  0  0  0  0  0  0
  137.9130  151.7995  143.7812 C   0  0  0  0  0  0  0  0  0  0  0  0
  138.8259  150.3979  141.6057 C   0  0  0  0  0  0  0  0  0  0  0  0
  137.6638  149.9538  141.7688 C   0  0  0  0  0  0  0  0  0  0  0  0
  137.5091  152.6033  144.9557 C   0  0  0  0  0  0  0  0  0  0  0  0
  136.8131  150.7653  143.7756 C   0  0  0  0  0  0  0  0  0  0  0  0
  136.7050  150.0802  142.7142 C   0  0  0  0  0  0  0  0  0  0  0  0
  136.2312  152.8787  145.1974 C   0  0  0  0  0  0  0  0  0  0  0  0
  135.9758  150.8218  144.8230 C   0  0  0  0  0  0  0  0  0  0  0  0
  135.7090  151.9862  145.5046 C   0  0  0  0  0  0  0  0  0  0  0  0
  139.6193  149.7747  140.3451 C   0  0  0  0  0  0  0  0  0  0  0  0
  1  2  1  0
  2  3  2  0
  1  4  2  0
  4  5  1  0
  3  6  1  0
  3  7  1  0
  5  8  1  0
  7  8  1  0
  6  9  1  0
  7 10  2  0
  9 11  2  0
 10 11  1  0
  4 12  1  0
M  END
$$$$

     RDKit          3D

 12 13  0  0  0  0  0  0  0  0999 V2000
  140.3019  150.2145  139.4802 Cl  0  0  0  0  0  0  0  0  0  0  0  0
  138.6758  150.1820  140.5311 C   0  0  0  0  0  0  0  0  0  0  0  0
  137.6364  149.3800  140.0902 C   0  0  0  0  0  0  0  0  0  0  0  0
  136.4360  149.4525  140.8154 C   0  0  0  0  0  0  0  0  0  0  0  0
  139.1314  150.7497  141.5093 C   0  0  0  0  0  0  0  0  0  0  0  0
  138.1131  150.7916  142.6542 C   0  0  0  0  0  0  0  0  0  0  0  0
  135.1492  149.2317  140.4372 C   0  0  0  0  0  0  0  0  0  0  0  0
  138.4196  151.3905  143.9383 C   0  0  0  0  0  0  0  0  0  0  0  0
  136.7853  150.4836  142.9834 N   0  0  0  0  0  0  0  0  0  0  0  0
  136.2610  150.8697  144.2731 C   0  0  0  0  0  0  0  0  0  0  0  0
  135.8539  149.8186  141.8773 C   0  0  0  0  0  0  0  0  0  0  0  0
  137.4043  151.4231  144.8922 C   0  0  0  0  0  0  0  0  0  0  0  0
  1  2  1  0
  2  3  2  0
  3  4  1  0
  2  5  1  0
  5  6  2  0
  4  7  1  0
  6  8  1  0
  6  9  1  0
  9 10  1  0
  4 11  2  0
  9 11  1  0
  8 12  1  0
 10 12  1  0
M  END
$$$$

     RDKit          3D

 12 13  0  0  0  0  0  0  0  0999 V2000
  140.3019  150.2145  139.4802 Cl  0  0  0  0  0  0  0  0  0  0  0  0
  138.6758  150.1820  140.5311 C   0  0  0  0  0  0  0  0  0  0  0  0
  137.6364  149.3800  140.0902 C   0  0  0  0  0  0  0  0  0  0  0  0
  139.0293  150.8783  141.6179 C   0  0  0  0  0  0  0  0  0  0  0  0
  138.0425  150.8315  142.6892 C   0  0  0  0  0  0  0  0  0  0  0  0
  136.8327  150.0626  142.4004 C   0  0  0  0  0  0  0  0  0  0  0  0
  137.3699  148.8634  138.9180 C   0  0  0  0  0  0  0  0  0  0  0  0
  135.8138  150.2616  143.4686 C   0  0  0  0  0  0  0  0  0  0  0  0
  136.4871  149.5587  141.1039 C   0  0  0  0  0  0  0  0  0  0  0  0
  138.3793  151.4596  143.9718 C   0  0  0  0  0  0  0  0  0  0  0  0
  137.4892  151.9309  144.5576 C   0  0  0  0  0  0  0  0  0  0  0  0
  136.1811  151.1826  144.6701 C   0  0  0  0  0  0  0  0  0  0  0  0
  1  2  1  0
  2  3  2  0
  2  4  1  0
  4  5  2  0
  5  6  1  0
  3  7  1  0
  6  8  1  0
  3  9  1  0
  6  9  2  0
  5 10  1  0
 10 11  1  0
  8 12  1  0
 11 12  1  0
M  END
$$$$

     RDKit          3D

 12 12  0  0  0  0  0  0  0  0999 V2000
  139.0010  149.7643  140.3643 C   0  0  0  0  0  0  0  0  0  0  0  0
  138.7144  149.5449  139.1247 C   0  0  0  0  0  0  0  0  0  0  0  0
  138.1840  150.1020  141.2852 C   0  0  0  0  0  0  0  0  0  0  0  0
  139.6385  149.1413  138.0959 C   0  0  0  0  0  0  0  0  0  0  0  0
  136.6881  150.0305  141.1796 C   0  0  0  0  0  0  0  0  0  0  0  0
  135.7984  150.1278  142.2481 C   0  0  0  0  0  0  0  0  0  0  0  0
  136.4758  150.9552  143.1765 C   0  0  0  0  0  0  0  0  0  0  0  0
  135.7797  151.3460  144.4950 C   0  0  0  0  0  0  0  0  0  0  0  0
  135.5471  150.8711  145.4009 C   0  0  0  0  0  0  0  0  0  0  0  0
  137.9878  151.1174  143.0492 C   0  0  0  0  0  0  0  0  0  0  0  0
  138.4220  151.9319  144.4031 C   0  0  0  0  0  0  0  0  0  0  0  0
  138.6546  150.6901  142.2287 N   0  0  0  0  0  0  0  0  0  0  0  0
  1  2  2  3
  1  3  1  0
  2  4  1  0
  3  5  2  0
  5  6  1  0
  6  7  2  0
  7  8  1  0
  8  9  2  0
  7 10  1  0
 10 11  1  0
  3 12  1  0
 10 12  2  0
M  END
$$$$

     RDKit          3D

 12 13  0  0  0  0  0  0  0  0999 V2000
  138.7086  151.1469  142.6266 C   0  0  0  0  0  0  0  0  0  0  0  0
  138.5250  151.9368  143.5112 C   0  0  0  0  0  0  0  0  0  0  0  0
  137.3811  151.6572  144.3961 C   0  0  0  0  0  0  0  0  0  0  0  0
  139.7008  151.1089  141.6121 C   0  0  0  0  0  0  0  0  0  0  0  0
  136.7115  150.4275  144.0247 C   0  0  0  0  0  0  0  0  0  0  0  0
  137.9015  150.0212  142.3179 C   0  0  0  0  0  0  0  0  0  0  0  0
  138.2227  149.2897  141.1482 C   0  0  0  0  0  0  0  0  0  0  0  0
  139.7131  150.3027  140.5115 C   0  0  0  0  0  0  0  0  0  0  0  0
  136.8992  149.7747  143.2213 C   0  0  0  0  0  0  0  0  0  0  0  0
  139.0813  149.5223  140.3151 C   0  0  0  0  0  0  0  0  0  0  0  0
  141.1324  150.8599  139.3494 Cl  0  0  0  0  0  0  0  0  0  0  0  0
  137.1152  152.6879  145.6084 Cl  0  0  0  0  0  0  0  0  0  0  0  0
  1  2  1  0
  2  3  2  0
  1  4  1  0
  3  5  1  0
  1  6  2  0
  6  7  1  0
  4  8  2  0
  5  9  2  0
  6  9  1  0
  7 10  2  0
  8 10  1  0
  8 11  1  0
  3 12  1  0
M  END
$$$$

     RDKit          3D

 12 13  0  0  0  0  0  0  0  0999 V2000
  140.3019  150.2145  139.4802 Cl  0  0  0  0  0  0  0  0  0  0  0  0
  138.6758  150.1820  140.5311 C   0  0  0  0  0  0  0  0  0  0  0  0
  137.6364  149.3800  140.0902 C   0  0  0  0  0  0  0  0  0  0  0  0
  138.7704  150.9236  141.6515 C   0  0  0  0  0  0  0  0  0  0  0  0
  138.1279  150.9106  142.4389 C   0  0  0  0  0  0  0  0  0  0  0  0
  136.6301  149.5529  140.9768 C   0  0  0  0  0  0  0  0  0  0  0  0
  138.2520  151.5891  143.8343 C   0  0  0  0  0  0  0  0  0  0  0  0
  135.2962  149.1029  140.6962 C   0  0  0  0  0  0  0  0  0  0  0  0
  137.1901  151.7567  144.6952 C   0  0  0  0  0  0  0  0  0  0  0  0
  136.1983  151.3422  144.4011 C   0  0  0  0  0  0  0  0  0  0  0  0
  136.7223  150.3060  142.2486 C   0  0  0  0  0  0  0  0  0  0  0  0
  135.8158  150.6031  143.1669 N   0  0  0  0  0  0  0  0  0  0  0  0
  1  2  1  0
  2  3  1  0
  2  4  2  0
  4  5  1  0
  3  6  2  0
  5  7  1  0
  6  8  1  0
  7  9  2  0
  9 10  1  0
  5 11  2  0
  6 11  1  0
 10 12  2  0
 11 12  1  0
M  END
$$$$

     RDKit          3D

 12 13  0  0  0  0  0  0  0  0999 V2000
  138.7086  151.1469  142.6266 C   0  0  0  0  0  0  0  0  0  0  0  0
  138.5250  151.9368  143.5112 C   0  0  0  0  0  0  0  0  0  0  0  0
  137.3811  151.6572  144.3961 C   0  0  0  0  0  0  0  0  0  0  0  0
  139.7008  151.1089  141.6121 C   0  0  0  0  0  0  0  0  0  0  0  0
  136.7115  150.4275  144.0247 C   0  0  0  0  0  0  0  0  0  0  0  0
  137.9015  150.0212  142.3179 C   0  0  0  0  0  0  0  0  0  0  0  0
  138.2227  149.2897  141.1482 C   0  0  0  0  0  0  0  0  0  0  0  0
  136.8382  152.3621  145.4464 C   0  0  0  0  0  0  0  0  0  0  0  0
  139.3074  149.8097  140.3441 C   0  0  0  0  0  0  0  0  0  0  0  0
  140.0536  150.6606  140.5972 C   0  0  0  0  0  0  0  0  0  0  0  0
  135.5645  152.5642  145.5406 C   0  0  0  0  0  0  0  0  0  0  0  0
  136.9605  149.6685  142.7813 N   0  0  0  0  0  0  0  0  0  0  0  0
  1  2  1  0
  2  3  2  0
  1  4  1  0
  3  5  1  0
  1  6  2  0
  6  7  1  0
  3  8  1  0
  7  9  2  0
  4 10  2  0
  9 10  1  0
  8 11  1  0
  5 12  1  0
  6 12  1  0
M  END
$$$$

     RDKit          3D

 12 12  0  0  0  0  0  0  0  0999 V2000
  138.9697  151.3146  142.5684 C   0  0  0  0  0  0  0  0  0  0  0  0
  138.6018  152.0883  143.2657 C   0  0  0  0  0  0  0  0  0  0  0  0
  137.6374  151.6902  144.0814 C   0  0  0  0  0  0  0  0  0  0  0  0
  140.0289  151.3257  141.4197 C   0  0  0  0  0  0  0  0  0  0  0  0
  138.3155  150.1048  142.4750 C   0  0  0  0  0  0  0  0  0  0  0  0
  137.1598  150.7310  144.0930 C   0  0  0  0  0  0  0  0  0  0  0  0
  137.3088  152.9948  145.0534 C   0  0  0  0  0  0  0  0  0  0  0  0
  136.1413  150.2530  145.1891 C   0  0  0  0  0  0  0  0  0  0  0  0
  137.3913  149.6173  143.3362 C   0  0  0  0  0  0  0  0  0  0  0  0
  139.9000  150.6136  140.2262 C   0  0  0  0  0  0  0  0  0  0  0  0
  139.0163  149.6537  139.9878 C   0  0  0  0  0  0  0  0  0  0  0  0
  138.6904  149.2872  138.6894 C   0  0  0  0  0  0  0  0  0  0  0  0
  1  2  1  0
  2  3  2  0
  1  4  1  0
  1  5  2  0
  3  6  1  0
  3  7  1  0
  6  8  1  0
  5  9  1  0
  6  9  2  0
  4 10  2  3
 10 11  1  0
 11 12  1  0
M  END
$$$$

     RDKit          3D

 12 13  0  0  0  0  0  0  0  0999 V2000
  138.9697  151.3146  142.5684 C   0  0  0  0  0  0  0  0  0  0  0  0
  138.6018  152.0883  143.2657 C   0  0  0  0  0  0  0  0  0  0  0  0
  137.6374  151.6902  144.0814 C   0  0  0  0  0  0  0  0  0  0  0  0
  140.0289  151.3257  141.4197 C   0  0  0  0  0  0  0  0  0  0  0  0
  138.3155  150.1048  142.4750 C   0  0  0  0  0  0  0  0  0  0  0  0
  137.1598  150.7310  144.0930 C   0  0  0  0  0  0  0  0  0  0  0  0
  137.3088  152.9948  145.0534 C   0  0  0  0  0  0  0  0  0  0  0  0
  136.1413  150.2530  145.1891 C   0  0  0  0  0  0  0  0  0  0  0  0
  137.3913  149.6173  143.3362 C   0  0  0  0  0  0  0  0  0  0  0  0
  139.9000  150.6136  140.2262 C   0  0  0  0  0  0  0  0  0  0  0  0
  139.0163  149.6537  139.9878 C   0  0  0  0  0  0  0  0  0  0  0  0
  138.4099  149.1847  141.2292 C   0  0  0  0  0  0  0  0  0  0  0  0
  1  2  1  0
  2  3  2  0
  1  4  1  0
  1  5  2  0
  3  6  1  0
  3  7  1  0
  6  8  1  0
  5  9  1  0
  6  9  2  0
  4 10  2  0
 10 11  1  0
  5 12  1  0
 11 12  1  0
M  END
$$$$

     RDKit          3D

 12 13  0  0  0  0  0  0  0  0999 V2000
  138.7086  151.1469  142.6266 C   0  0  0  0  0  0  0  0  0  0  0  0
  138.5250  151.9368  143.5112 C   0  0  0  0  0  0  0  0  0  0  0  0
  137.3811  151.6572  144.3961 C   0  0  0  0  0  0  0  0  0  0  0  0
  139.7008  151.1089  141.6121 C   0  0  0  0  0  0  0  0  0  0  0  0
  136.7115  150.4275  144.0247 C   0  0  0  0  0  0  0  0  0  0  0  0
  137.9015  150.0212  142.3179 C   0  0  0  0  0  0  0  0  0  0  0  0
  138.2227  149.2897  141.1482 C   0  0  0  0  0  0  0  0  0  0  0  0
  136.8382  152.3621  145.4464 C   0  0  0  0  0  0  0  0  0  0  0  0
  137.0338  149.6736  142.9427 N   0  0  0  0  0  0  0  0  0  0  0  0
  139.6305  150.2633  140.5639 C   0  0  0  0  0  0  0  0  0  0  0  0
  140.2723  150.4209  139.6784 O   0  0  0  0  0  0  0  0  0  0  0  0
  135.5017  152.2753  145.8632 C   0  0  0  0  0  0  0  0  0  0  0  0
  1  2  1  0
  2  3  2  0
  1  4  1  0
  3  5  1  0
  1  6  2  0
  6  7  1  0
  3  8  1  0
  5  9  2  0
  6  9  1  0
  4 10  1  0
  7 10  1  0
 10 11  1  0
  8 12  1  0
M  END
$$$$

     RDKit          3D

 12 13  0  0  0  0  0  0  0  0999 V2000
  138.7086  151.1469  142.6266 C   0  0  0  0  0  0  0  0  0  0  0  0
  138.5250  151.9368  143.5112 C   0  0  0  0  0  0  0  0  0  0  0  0
  137.3811  151.6572  144.3961 C   0  0  0  0  0  0  0  0  0  0  0  0
  139.7008  151.1089  141.6121 C   0  0  0  0  0  0  0  0  0  0  0  0
  136.7115  150.4275  144.0247 C   0  0  0  0  0  0  0  0  0  0  0  0
  137.9015  150.0212  142.3179 C   0  0  0  0  0  0  0  0  0  0  0  0
  136.8859  149.6190  143.0675 C   0  0  0  0  0  0  0  0  0  0  0  0
  139.8593  150.6535  140.3136 C   0  0  0  0  0  0  0  0  0  0  0  0
  138.9812  149.6479  139.9300 C   0  0  0  0  0  0  0  0  0  0  0  0
  138.0194  149.2769  140.9568 C   0  0  0  0  0  0  0  0  0  0  0  0
  137.1389  152.5424  145.4907 O   0  0  0  0  0  0  0  0  0  0  0  0
  136.6527  153.7624  145.1356 C   0  0  0  0  0  0  0  0  0  0  0  0
  1  2  1  0
  2  3  2  0
  1  4  1  0
  3  5  1  0
  1  6  2  0
  5  7  2  0
  6  7  1  0
  4  8  2  0
  8  9  1  0
  6 10  1  0
  9 10  2  0
  3 11  1  0
 11 12  1  0
M  END
$$$$

     RDKit          3D

 12 13  0  0  0  0  0  0  0  0999 V2000
  140.3019  150.2145  139.4802 Cl  0  0  0  0  0  0  0  0  0  0  0  0
  138.6758  150.1820  140.5311 C   0  0  0  0  0  0  0  0  0  0  0  0
  137.6364  149.3800  140.0902 C   0  0  0  0  0  0  0  0  0  0  0  0
  136.4360  149.4525  140.8154 C   0  0  0  0  0  0  0  0  0  0  0  0
  139.1314  150.7497  141.5093 C   0  0  0  0  0  0  0  0  0  0  0  0
  138.1131  150.7916  142.6542 C   0  0  0  0  0  0  0  0  0  0  0  0
  135.1492  149.2317  140.4372 C   0  0  0  0  0  0  0  0  0  0  0  0
  138.4196  151.3905  143.9383 C   0  0  0  0  0  0  0  0  0  0  0  0
  136.7853  150.4836  142.9834 C   0  0  0  0  0  0  0  0  0  0  0  0
  136.2536  150.8828  144.2319 C   0  0  0  0  0  0  0  0  0  0  0  0
  136.2375  150.0216  142.1636 C   0  0  0  0  0  0  0  0  0  0  0  0
  137.3756  151.3777  144.7042 N   0  0  0  0  0  0  0  0  0  0  0  0
  1  2  1  0
  2  3  2  0
  3  4  1  0
  2  5  1  0
  5  6  2  0
  4  7  1  0
  6  8  1  0
  6  9  1  0
  9 10  1  0
  4 11  2  0
  9 11  1  0
  8 12  1  0
 10 12  1  0
M  END
$$$$

     RDKit          3D

 12 13  0  0  0  0  0  0  0  0999 V2000
  139.2620  151.0921  142.4039 C   0  0  0  0  0  0  0  0  0  0  0  0
  138.8618  152.1315  142.9023 C   0  0  0  0  0  0  0  0  0  0  0  0
  137.9130  151.7995  143.7812 C   0  0  0  0  0  0  0  0  0  0  0  0
  138.8259  150.3979  141.6057 C   0  0  0  0  0  0  0  0  0  0  0  0
  137.6638  149.9538  141.7688 C   0  0  0  0  0  0  0  0  0  0  0  0
  137.5091  152.6033  144.9557 C   0  0  0  0  0  0  0  0  0  0  0  0
  136.8131  150.7653  143.7756 C   0  0  0  0  0  0  0  0  0  0  0  0
  136.7050  150.0802  142.7142 C   0  0  0  0  0  0  0  0  0  0  0  0
  136.2312  152.8787  145.1974 C   0  0  0  0  0  0  0  0  0  0  0  0
  135.9758  150.8218  144.8230 C   0  0  0  0  0  0  0  0  0  0  0  0
  139.6477  150.0851  140.3932 C   0  0  0  0  0  0  0  0  0  0  0  0
  135.5529  151.7484  145.5637 C   0  0  0  0  0  0  0  0  0  0  0  0
  1  2  1  0
  2  3  2  0
  1  4  2  0
  4  5  1  0
  3  6  1  0
  3  7  1  0
  5  8  1  0
  7  8  1  0
  6  9  1  0
  7 10  2  0
  4 11  1  0
  9 12  1  0
 10 12  1  0
M  END
$$$$

     RDKit          3D

 13 14  0  0  0  0  0  0  0  0999 V2000
  138.7240  151.5758  143.3184 C   0  0  0  0  0  0  0  0  0  0  0  0
  137.9193  152.3258  143.7536 C   0  0  0  0  0  0  0  0  0  0  0  0
  136.7526  151.8075  144.4391 C   0  0  0  0  0  0  0  0  0  0  0  0
  136.7825  150.4607  144.6808 C   0  0  0  0  0  0  0  0  0  0  0  0
  135.8633  152.6144  145.2382 C   0  0  0  0  0  0  0  0  0  0  0  0
  138.4720  150.1666  143.2072 C   0  0  0  0  0  0  0  0  0  0  0  0
  135.9938  153.8877  145.3789 C   0  0  0  0  0  0  0  0  0  0  0  0
  134.7465  151.9838  145.8269 C   0  0  0  0  0  0  0  0  0  0  0  0
  139.3227  149.2363  142.5316 C   0  0  0  0  0  0  0  0  0  0  0  0
  135.8241  150.0462  145.6494 C   0  0  0  0  0  0  0  0  0  0  0  0
  133.7602  152.8775  146.2967 C   0  0  0  0  0  0  0  0  0  0  0  0
  134.8658  150.6635  146.0766 C   0  0  0  0  0  0  0  0  0  0  0  0
  137.4910  149.5775  144.0441 N   0  0  0  0  0  0  0  0  0  0  0  0
  1  2  1  0
  2  3  2  0
  3  4  1  0
  3  5  1  0
  1  6  2  0
  5  7  1  0
  5  8  2  0
  6  9  1  0
  4 10  1  0
  8 11  1  0
  8 12  1  0
 10 12  2  0
  4 13  2  0
  6 13  1  0
M  END
$$$$

     RDKit          3D

 13 14  0  0  0  0  0  0  0  0999 V2000
  140.3019  150.2145  139.4802 Cl  0  0  0  0  0  0  0  0  0  0  0  0
  138.6758  150.1820  140.5311 C   0  0  0  0  0  0  0  0  0  0  0  0
  137.6364  149.3800  140.0902 C   0  0  0  0  0  0  0  0  0  0  0  0
  139.0293  150.8783  141.6179 C   0  0  0  0  0  0  0  0  0  0  0  0
  136.4821  149.4702  141.0029 C   0  0  0  0  0  0  0  0  0  0  0  0
  136.5997  150.3282  142.1426 C   0  0  0  0  0  0  0  0  0  0  0  0
  135.4514  150.4834  143.0679 C   0  0  0  0  0  0  0  0  0  0  0  0
  138.1044  150.9690  142.4596 C   0  0  0  0  0  0  0  0  0  0  0  0
  135.7354  150.7638  144.3440 C   0  0  0  0  0  0  0  0  0  0  0  0
  136.9566  150.9211  144.8835 C   0  0  0  0  0  0  0  0  0  0  0  0
  134.7739  151.1514  145.2973 C   0  0  0  0  0  0  0  0  0  0  0  0
  138.1405  151.3045  143.9673 C   0  0  0  0  0  0  0  0  0  0  0  0
  134.8134  150.7743  146.5450 C   0  0  0  0  0  0  0  0  0  0  0  0
  1  2  1  0
  2  3  2  0
  2  4  1  0
  3  5  1  0
  5  6  2  0
  6  7  1  0
  4  8  2  0
  6  8  1  0
  7  9  1  0
  9 10  1  0
  9 11  2  3
  8 12  1  0
 10 12  1  0
 11 13  1  0
M  END
$$$$

     RDKit          3D

 13 14  0  0  0  0  0  0  0  0999 V2000
  138.7086  151.1469  142.6266 C   0  0  0  0  0  0  0  0  0  0  0  0
  138.5250  151.9368  143.5112 C   0  0  0  0  0  0  0  0  0  0  0  0
  137.3905  151.8077  144.0741 C   0  0  0  0  0  0  0  0  0  0  0  0
  136.5952  150.6189  143.9723 C   0  0  0  0  0  0  0  0  0  0  0  0
  137.9808  149.9629  142.2545 C   0  0  0  0  0  0  0  0  0  0  0  0
  136.5092  152.7499  145.0886 C   0  0  0  0  0  0  0  0  0  0  0  0
  135.4520  152.3059  145.6998 C   0  0  0  0  0  0  0  0  0  0  0  0
  135.4638  150.4686  144.8121 C   0  0  0  0  0  0  0  0  0  0  0  0
  134.7544  151.2180  145.5922 C   0  0  0  0  0  0  0  0  0  0  0  0
  136.9480  149.7434  143.0325 C   0  0  0  0  0  0  0  0  0  0  0  0
  140.0337  151.3429  141.7296 O   0  0  0  0  0  0  0  0  0  0  0  0
  134.9161  153.5586  146.5005 C   0  0  0  0  0  0  0  0  0  0  0  0
  139.9054  150.9247  140.4586 C   0  0  0  0  0  0  0  0  0  0  0  0
  1  2  1  0
  2  3  2  0
  3  4  1  0
  1  5  2  0
  3  6  1  0
  6  7  1  0
  4  8  1  0
  7  9  1  0
  8  9  2  0
  4 10  2  0
  5 10  1  0
  1 11  1  0
  7 12  2  0
 11 13  1  0
M  END
$$$$

     RDKit          3D

 13 14  0  0  0  0  0  0  0  0999 V2000
  138.9697  151.3146  142.5684 C   0  0  0  0  0  0  0  0  0  0  0  0
  138.6018  152.0883  143.2657 C   0  0  0  0  0  0  0  0  0  0  0  0
  137.6687  151.8115  144.0583 C   0  0  0  0  0  0  0  0  0  0  0  0
  139.9926  151.3705  141.4268 C   0  0  0  0  0  0  0  0  0  0  0  0
  137.5512  150.6294  144.9277 C   0  0  0  0  0  0  0  0  0  0  0  0
  139.6588  150.7358  140.2572 C   0  0  0  0  0  0  0  0  0  0  0  0
  138.5025  150.0408  140.2323 C   0  0  0  0  0  0  0  0  0  0  0  0
  137.6103  149.8214  141.4294 C   0  0  0  0  0  0  0  0  0  0  0  0
  140.5150  150.7374  139.1663 C   0  0  0  0  0  0  0  0  0  0  0  0
  138.0040  149.4736  139.1312 C   0  0  0  0  0  0  0  0  0  0  0  0
  138.0546  150.1967  142.3161 C   0  0  0  0  0  0  0  0  0  0  0  0
  138.5953  148.9644  138.2187 C   0  0  0  0  0  0  0  0  0  0  0  0
  137.4946  149.6358  143.7702 N   0  0  0  0  0  0  0  0  0  0  0  0
  1  2  2  0
  2  3  1  0
  1  4  1  0
  3  5  2  0
  4  6  2  0
  6  7  1  0
  7  8  1  0
  6  9  1  0
  7 10  2  3
  1 11  1  0
  8 11  2  0
 10 12  1  0
  5 13  1  0
 11 13  1  0
M  END
$$$$

     RDKit          3D

 13 14  0  0  0  0  0  0  0  0999 V2000
  138.9697  151.3146  142.5684 C   0  0  0  0  0  0  0  0  0  0  0  0
  138.6018  152.0883  143.2657 C   0  0  0  0  0  0  0  0  0  0  0  0
  137.6374  151.6902  144.0814 C   0  0  0  0  0  0  0  0  0  0  0  0
  140.0289  151.3257  141.4197 C   0  0  0  0  0  0  0  0  0  0  0  0
  137.1948  150.3123  143.8930 C   0  0  0  0  0  0  0  0  0  0  0  0
  139.8113  150.4471  140.2754 C   0  0  0  0  0  0  0  0  0  0  0  0
  138.3146  149.9305  142.4430 C   0  0  0  0  0  0  0  0  0  0  0  0
  139.0457  149.5706  140.1138 C   0  0  0  0  0  0  0  0  0  0  0  0
  137.5771  149.5502  143.1437 C   0  0  0  0  0  0  0  0  0  0  0  0
  138.5046  149.1084  138.8880 C   0  0  0  0  0  0  0  0  0  0  0  0
  138.5229  149.1116  141.1851 N   0  0  0  0  0  0  0  0  0  0  0  0
  140.9504  150.7652  139.3313 C   0  0  0  0  0  0  0  0  0  0  0  0
  137.1128  152.6774  145.0778 C   0  0  0  0  0  0  0  0  0  0  0  0
  1  2  1  0
  2  3  2  0
  1  4  1  0
  3  5  1  0
  4  6  1  0
  1  7  2  0
  6  8  1  0
  5  9  2  0
  7  9  1  0
  8 10  2  0
  7 11  1  0
  8 11  1  0
  6 12  2  0
  3 13  1  0
M  END
$$$$

     RDKit          3D

 13 14  0  0  0  0  0  0  0  0999 V2000
  138.7086  151.1469  142.6266 C   0  0  0  0  0  0  0  0  0  0  0  0
  138.5250  151.9368  143.5112 C   0  0  0  0  0  0  0  0  0  0  0  0
  137.3905  151.8077  144.0741 C   0  0  0  0  0  0  0  0  0  0  0  0
  136.5952  150.6189  143.9723 C   0  0  0  0  0  0  0  0  0  0  0  0
  137.9808  149.9629  142.2545 C   0  0  0  0  0  0  0  0  0  0  0  0
  136.5092  152.7499  145.0886 C   0  0  0  0  0  0  0  0  0  0  0  0
  135.4520  152.3059  145.6998 C   0  0  0  0  0  0  0  0  0  0  0  0
  135.4638  150.4686  144.8121 C   0  0  0  0  0  0  0  0  0  0  0  0
  134.7544  151.2180  145.5922 C   0  0  0  0  0  0  0  0  0  0  0  0
  136.9480  149.7434  143.0325 C   0  0  0  0  0  0  0  0  0  0  0  0
  134.9233  153.5612  146.5000 C   0  0  0  0  0  0  0  0  0  0  0  0
  140.0314  151.3365  141.7358 C   0  0  0  0  0  0  0  0  0  0  0  0
  140.0991  150.6204  140.4802 C   0  0  0  0  0  0  0  0  0  0  0  0
  1  2  1  0
  2  3  2  0
  3  4  1  0
  1  5  2  0
  3  6  1  0
  6  7  1  0
  4  8  1  0
  7  9  1  0
  8  9  2  0
  4 10  2  0
  5 10  1  0
  7 11  2  0
  1 12  1  0
 12 13  1  0
M  END
$$$$

     RDKit          3D

 13 14  0  0  0  0  0  0  0  0999 V2000
  139.0010  149.7643  140.3643 C   0  0  0  0  0  0  0  0  0  0  0  0
  138.7144  149.5449  139.1247 C   0  0  0  0  0  0  0  0  0  0  0  0
  138.1840  150.1020  141.2852 C   0  0  0  0  0  0  0  0  0  0  0  0
  139.6385  149.1413  138.0959 C   0  0  0  0  0  0  0  0  0  0  0  0
  136.6881  150.0305  141.1796 C   0  0  0  0  0  0  0  0  0  0  0  0
  135.7984  150.1278  142.2481 C   0  0  0  0  0  0  0  0  0  0  0  0
  136.4562  150.6806  143.3963 C   0  0  0  0  0  0  0  0  0  0  0  0
  135.7469  151.0481  144.6522 C   0  0  0  0  0  0  0  0  0  0  0  0
  136.1660  152.3400  145.2923 C   0  0  0  0  0  0  0  0  0  0  0  0
  135.2191  152.8828  146.2027 C   0  0  0  0  0  0  0  0  0  0  0  0
  137.7831  151.1455  143.8482 C   0  0  0  0  0  0  0  0  0  0  0  0
  138.0509  152.0664  144.8024 C   0  0  0  0  0  0  0  0  0  0  0  0
  138.7105  150.8518  142.6655 C   0  0  0  0  0  0  0  0  0  0  0  0
  1  2  2  3
  1  3  1  0
  2  4  1  0
  3  5  2  0
  5  6  1  0
  6  7  2  0
  7  8  1  0
  8  9  1  0
  9 10  1  0
  7 11  1  0
  9 12  1  0
 11 12  1  0
  3 13  1  0
 11 13  1  0
M  END
$$$$

     RDKit          3D

 13 14  0  0  0  0  0  0  0  0999 V2000
  140.3019  150.2145  139.4802 Cl  0  0  0  0  0  0  0  0  0  0  0  0
  138.6758  150.1820  140.5311 C   0  0  0  0  0  0  0  0  0  0  0  0
  137.6364  149.3800  140.0902 C   0  0  0  0  0  0  0  0  0  0  0  0
  138.7704  150.9236  141.6515 C   0  0  0  0  0  0  0  0  0  0  0  0
  138.1279  150.9106  142.4389 C   0  0  0  0  0  0  0  0  0  0  0  0
  136.6301  149.5529  140.9768 C   0  0  0  0  0  0  0  0  0  0  0  0
  138.2520  151.5891  143.8343 C   0  0  0  0  0  0  0  0  0  0  0  0
  135.2962  149.1029  140.6962 C   0  0  0  0  0  0  0  0  0  0  0  0
  137.1901  151.7567  144.6952 C   0  0  0  0  0  0  0  0  0  0  0  0
  136.0720  151.0250  144.2022 C   0  0  0  0  0  0  0  0  0  0  0  0
  134.9491  151.2497  145.1214 C   0  0  0  0  0  0  0  0  0  0  0  0
  136.1397  150.3984  142.9456 C   0  0  0  0  0  0  0  0  0  0  0  0
  137.0067  150.3878  142.1489 C   0  0  0  0  0  0  0  0  0  0  0  0
  1  2  1  0
  2  3  1  0
  2  4  2  0
  4  5  1  0
  3  6  2  0
  5  7  1  0
  6  8  1  0
  7  9  2  0
  9 10  1  0
 10 11  1  0
 10 12  2  0
  5 13  2  0
  6 13  1  0
 12 13  1  0
M  END
$$$$

     RDKit          3D

 13 14  0  0  0  0  0  0  0  0999 V2000
  138.9697  151.3146  142.5684 C   0  0  0  0  0  0  0  0  0  0  0  0
  138.6018  152.0883  143.2657 C   0  0  0  0  0  0  0  0  0  0  0  0
  137.4864  151.7371  144.1980 C   0  0  0  0  0  0  0  0  0  0  0  0
  139.9864  151.4011  141.4219 C   0  0  0  0  0  0  0  0  0  0  0  0
  136.7358  152.5376  145.0264 C   0  0  0  0  0  0  0  0  0  0  0  0
  139.7034  150.7343  140.1991 C   0  0  0  0  0  0  0  0  0  0  0  0
  137.0180  153.8817  145.0034 C   0  0  0  0  0  0  0  0  0  0  0  0
  135.6277  152.1340  145.3254 C   0  0  0  0  0  0  0  0  0  0  0  0
  138.5726  149.8410  140.3380 C   0  0  0  0  0  0  0  0  0  0  0  0
  137.7387  149.7688  141.5086 C   0  0  0  0  0  0  0  0  0  0  0  0
  138.1718  150.5608  142.5314 C   0  0  0  0  0  0  0  0  0  0  0  0
  137.2737  150.3832  143.9176 N   0  0  0  0  0  0  0  0  0  0  0  0
  134.7286  152.7330  145.9959 C   0  0  0  0  0  0  0  0  0  0  0  0
  1  2  1  0
  2  3  2  0
  1  4  1  0
  3  5  1  0
  4  6  2  0
  5  7  1  0
  5  8  2  3
  6  9  1  0
  9 10  2  0
  1 11  2  0
 10 11  1  0
  3 12  1  0
 11 12  1  0
  8 13  1  0
M  END
$$$$

     RDKit          3D

 13 14  0  0  0  0  0  0  0  0999 V2000
  140.3019  150.2145  139.4802 Cl  0  0  0  0  0  0  0  0  0  0  0  0
  138.6758  150.1820  140.5311 C   0  0  0  0  0  0  0  0  0  0  0  0
  137.6364  149.3800  140.0902 C   0  0  0  0  0  0  0  0  0  0  0  0
  136.4360  149.4525  140.8154 C   0  0  0  0  0  0  0  0  0  0  0  0
  139.1314  150.7497  141.5093 C   0  0  0  0  0  0  0  0  0  0  0  0
  138.1131  150.7916  142.6542 C   0  0  0  0  0  0  0  0  0  0  0  0
  135.1492  149.2317  140.4372 C   0  0  0  0  0  0  0  0  0  0  0  0
  138.4196  151.3905  143.9383 C   0  0  0  0  0  0  0  0  0  0  0  0
  136.7853  150.4836  142.9834 N   0  0  0  0  0  0  0  0  0  0  0  0
  136.2610  150.8697  144.2731 C   0  0  0  0  0  0  0  0  0  0  0  0
  135.8539  149.8186  141.8773 C   0  0  0  0  0  0  0  0  0  0  0  0
  135.1294  150.8095  144.6413 C   0  0  0  0  0  0  0  0  0  0  0  0
  137.4059  151.2905  144.7330 N   0  0  0  0  0  0  0  0  0  0  0  0
  1  2  1  0
  2  3  2  0
  3  4  1  0
  2  5  1  0
  5  6  2  0
  4  7  1  0
  6  8  1  0
  6  9  1  0
  9 10  1  0
  4 11  1  0
  9 11  1  0
 10 12  1  0
  8 13  1  0
 10 13  2  0
M  END
$$$$

     RDKit          3D

 13 14  0  0  0  0  0  0  0  0999 V2000
  140.3019  150.2145  139.4802 Cl  0  0  0  0  0  0  0  0  0  0  0  0
  138.6758  150.1820  140.5311 C   0  0  0  0  0  0  0  0  0  0  0  0
  137.6364  149.3800  140.0902 C   0  0  0  0  0  0  0  0  0  0  0  0
  138.7704  150.9236  141.6515 C   0  0  0  0  0  0  0  0  0  0  0  0
  138.1279  150.9106  142.4389 C   0  0  0  0  0  0  0  0  0  0  0  0
  136.6301  149.5529  140.9768 C   0  0  0  0  0  0  0  0  0  0  0  0
  138.2520  151.5891  143.8343 C   0  0  0  0  0  0  0  0  0  0  0  0
  135.2962  149.1029  140.6962 C   0  0  0  0  0  0  0  0  0  0  0  0
  137.1901  151.7567  144.6952 C   0  0  0  0  0  0  0  0  0  0  0  0
  136.1983  151.3422  144.4011 C   0  0  0  0  0  0  0  0  0  0  0  0
  136.7223  150.3060  142.2486 C   0  0  0  0  0  0  0  0  0  0  0  0
  135.8158  150.6031  143.1669 C   0  0  0  0  0  0  0  0  0  0  0  0
  134.6768  151.6014  145.3978 Cl  0  0  0  0  0  0  0  0  0  0  0  0
  1  2  1  0
  2  3  1  0
  2  4  2  0
  4  5  1  0
  3  6  2  0
  5  7  1  0
  6  8  1  0
  7  9  2  0
  9 10  1  0
  5 11  2  0
  6 11  1  0
 10 12  2  0
 11 12  1  0
 10 13  1  0
M  END
$$$$

     RDKit          3D

 13 14  0  0  0  0  0  0  0  0999 V2000
  139.0010  149.7643  140.3643 C   0  0  0  0  0  0  0  0  0  0  0  0
  138.7144  149.5449  139.1247 C   0  0  0  0  0  0  0  0  0  0  0  0
  138.1840  150.1020  141.2852 C   0  0  0  0  0  0  0  0  0  0  0  0
  137.3200  149.5871  138.6815 C   0  0  0  0  0  0  0  0  0  0  0  0
  136.4668  149.5647  139.6600 C   0  0  0  0  0  0  0  0  0  0  0  0
  138.6203  150.4924  142.6513 C   0  0  0  0  0  0  0  0  0  0  0  0
  137.7616  150.9851  143.6296 C   0  0  0  0  0  0  0  0  0  0  0  0
  136.4770  150.9768  143.2092 C   0  0  0  0  0  0  0  0  0  0  0  0
  135.5254  151.4160  144.2399 C   0  0  0  0  0  0  0  0  0  0  0  0
  136.7403  150.0044  140.9819 C   0  0  0  0  0  0  0  0  0  0  0  0
  135.1653  151.0499  145.2747 C   0  0  0  0  0  0  0  0  0  0  0  0
  134.6881  151.8235  146.4229 C   0  0  0  0  0  0  0  0  0  0  0  0
  135.8559  150.4017  142.0100 C   0  0  0  0  0  0  0  0  0  0  0  0
  1  2  2  0
  1  3  1  0
  2  4  1  0
  4  5  2  0
  3  6  1  0
  6  7  2  0
  7  8  1  0
  8  9  1  0
  3 10  2  0
  5 10  1  0
  9 11  2  3
 11 12  1  0
  8 13  2  0
 10 13  1  0
M  END
$$$$

     RDKit          3D

 13 14  0  0  0  0  0  0  0  0999 V2000
  139.2620  151.0921  142.4039 C   0  0  0  0  0  0  0  0  0  0  0  0
  138.8618  152.1315  142.9023 C   0  0  0  0  0  0  0  0  0  0  0  0
  137.9130  151.7995  143.7812 C   0  0  0  0  0  0  0  0  0  0  0  0
  138.8259  150.3979  141.6057 C   0  0  0  0  0  0  0  0  0  0  0  0
  137.6638  149.9538  141.7688 C   0  0  0  0  0  0  0  0  0  0  0  0
  137.5091  152.6033  144.9557 C   0  0  0  0  0  0  0  0  0  0  0  0
  136.8131  150.7653  143.7756 C   0  0  0  0  0  0  0  0  0  0  0  0
  136.7050  150.0802  142.7142 C   0  0  0  0  0  0  0  0  0  0  0  0
  136.2312  152.8787  145.1974 C   0  0  0  0  0  0  0  0  0  0  0  0
  135.9758  150.8218  144.8230 C   0  0  0  0  0  0  0  0  0  0  0  0
  139.6477  150.0851  140.3932 C   0  0  0  0  0  0  0  0  0  0  0  0
  135.7007  151.9861  145.5044 C   0  0  0  0  0  0  0  0  0  0  0  0
  140.9707  150.0015  140.3366 C   0  0  0  0  0  0  0  0  0  0  0  0
  1  2  1  0
  2  3  2  0
  1  4  2  0
  4  5  1  0
  3  6  1  0
  3  7  1  0
  5  8  1  0
  7  8  1  0
  6  9  1  0
  7 10  2  0
  4 11  1  0
  9 12  2  0
 10 12  1  0
 11 13  2  0
M  END
$$$$

     RDKit          3D

 13 14  0  0  0  0  0  0  0  0999 V2000
  139.2620  151.0921  142.4039 C   0  0  0  0  0  0  0  0  0  0  0  0
  138.8618  152.1315  142.9023 C   0  0  0  0  0  0  0  0  0  0  0  0
  137.9130  151.7995  143.7812 C   0  0  0  0  0  0  0  0  0  0  0  0
  138.8259  150.3979  141.6057 C   0  0  0  0  0  0  0  0  0  0  0  0
  137.6638  149.9538  141.7688 C   0  0  0  0  0  0  0  0  0  0  0  0
  137.5091  152.6033  144.9557 C   0  0  0  0  0  0  0  0  0  0  0  0
  136.8131  150.7653  143.7756 C   0  0  0  0  0  0  0  0  0  0  0  0
  136.7050  150.0802  142.7142 C   0  0  0  0  0  0  0  0  0  0  0  0
  136.2312  152.8787  145.1974 C   0  0  0  0  0  0  0  0  0  0  0  0
  135.3045  151.8431  145.1497 C   0  0  0  0  0  0  0  0  0  0  0  0
  135.6632  150.7948  144.6314 C   0  0  0  0  0  0  0  0  0  0  0  0
  139.6703  150.0647  140.3515 C   0  0  0  0  0  0  0  0  0  0  0  0
  140.9754  149.9997  140.2699 C   0  0  0  0  0  0  0  0  0  0  0  0
  1  2  1  0
  2  3  2  0
  1  4  2  0
  4  5  1  0
  3  6  1  0
  3  7  1  0
  5  8  1  0
  7  8  1  0
  6  9  2  0
  9 10  1  0
  7 11  2  0
 10 11  2  0
  4 12  1  0
 12 13  2  0
M  END
$$$$

     RDKit          3D

 13 14  0  0  0  0  0  0  0  0999 V2000
  140.3019  150.2145  139.4802 Cl  0  0  0  0  0  0  0  0  0  0  0  0
  138.6758  150.1820  140.5311 C   0  0  0  0  0  0  0  0  0  0  0  0
  137.6364  149.3800  140.0902 C   0  0  0  0  0  0  0  0  0  0  0  0
  138.7704  150.9236  141.6515 C   0  0  0  0  0  0  0  0  0  0  0  0
  138.1279  150.9106  142.4389 C   0  0  0  0  0  0  0  0  0  0  0  0
  136.6301  149.5529  140.9768 C   0  0  0  0  0  0  0  0  0  0  0  0
  138.2520  151.5891  143.8343 C   0  0  0  0  0  0  0  0  0  0  0  0
  135.2962  149.1029  140.6962 C   0  0  0  0  0  0  0  0  0  0  0  0
  137.1901  151.7567  144.6952 C   0  0  0  0  0  0  0  0  0  0  0  0
  136.0720  151.0250  144.2022 C   0  0  0  0  0  0  0  0  0  0  0  0
  134.9491  151.2497  145.1214 C   0  0  0  0  0  0  0  0  0  0  0  0
  136.8213  150.3084  142.1784 C   0  0  0  0  0  0  0  0  0  0  0  0
  135.9192  150.4524  143.0298 N   0  0  0  0  0  0  0  0  0  0  0  0
  1  2  1  0
  2  3  1  0
  2  4  2  0
  4  5  1  0
  3  6  2  0
  5  7  1  0
  6  8  1  0
  7  9  2  0
  9 10  1  0
 10 11  1  0
  5 12  2  0
  6 12  1  0
 10 13  2  0
 12 13  1  0
M  END
$$$$

     RDKit          3D

 13 14  0  0  0  0  0  0  0  0999 V2000
  140.3019  150.2145  139.4802 Cl  0  0  0  0  0  0  0  0  0  0  0  0
  138.6758  150.1820  140.5311 C   0  0  0  0  0  0  0  0  0  0  0  0
  137.6364  149.3800  140.0902 C   0  0  0  0  0  0  0  0  0  0  0  0
  138.8645  150.7144  141.4528 C   0  0  0  0  0  0  0  0  0  0  0  0
  137.8186  150.7977  142.5169 C   0  0  0  0  0  0  0  0  0  0  0  0
  138.0486  151.4509  143.8211 C   0  0  0  0  0  0  0  0  0  0  0  0
  136.6997  150.0744  142.0183 C   0  0  0  0  0  0  0  0  0  0  0  0
  136.9142  151.6355  144.5807 C   0  0  0  0  0  0  0  0  0  0  0  0
  137.5435  148.7608  138.8608 C   0  0  0  0  0  0  0  0  0  0  0  0
  135.5528  150.4081  143.0272 C   0  0  0  0  0  0  0  0  0  0  0  0
  135.6724  151.0932  144.2616 C   0  0  0  0  0  0  0  0  0  0  0  0
  136.4547  149.5653  140.9528 C   0  0  0  0  0  0  0  0  0  0  0  0
  136.7059  152.2638  145.7336 O   0  0  0  0  0  0  0  0  0  0  0  0
  1  2  1  0
  2  3  2  0
  2  4  1  0
  4  5  2  0
  5  6  1  0
  5  7  1  0
  6  8  1  0
  3  9  1  0
  7 10  1  0
  8 11  1  0
 10 11  2  0
  3 12  1  0
  7 12  2  0
  8 13  2  0
M  END
$$$$

     RDKit          3D

 13 14  0  0  0  0  0  0  0  0999 V2000
  138.9697  151.3146  142.5684 C   0  0  0  0  0  0  0  0  0  0  0  0
  138.6018  152.0883  143.2657 C   0  0  0  0  0  0  0  0  0  0  0  0
  137.5210  151.7905  144.2146 C   0  0  0  0  0  0  0  0  0  0  0  0
  139.9450  151.4362  141.4348 C   0  0  0  0  0  0  0  0  0  0  0  0
  137.4509  150.5150  144.7895 C   0  0  0  0  0  0  0  0  0  0  0  0
  139.6483  150.6881  140.3006 C   0  0  0  0  0  0  0  0  0  0  0  0
  138.5290  149.9149  140.3372 C   0  0  0  0  0  0  0  0  0  0  0  0
  137.6578  149.7051  141.5159 C   0  0  0  0  0  0  0  0  0  0  0  0
  138.0468  150.4771  142.6111 C   0  0  0  0  0  0  0  0  0  0  0  0
  136.4796  152.5504  144.4594 C   0  0  0  0  0  0  0  0  0  0  0  0
  137.4723  150.1130  143.7827 N   0  0  0  0  0  0  0  0  0  0  0  0
  140.7199  150.6556  139.1060 Cl  0  0  0  0  0  0  0  0  0  0  0  0
  136.1169  153.1838  145.4575 O   0  0  0  0  0  0  0  0  0  0  0  0
  1  2  2  0
  2  3  1  0
  1  4  1  0
  3  5  2  0
  4  6  2  0
  6  7  1  0
  7  8  2  0
  1  9  1  0
  8  9  1  0
  3 10  1  0
  5 11  1  0
  9 11  2  0
  6 12  1  0
 10 13  1  0
M  END
$$$$

     RDKit          3D

 13 14  0  0  0  0  0  0  0  0999 V2000
  138.7086  151.1469  142.6266 C   0  0  0  0  0  0  0  0  0  0  0  0
  138.5250  151.9368  143.5112 C   0  0  0  0  0  0  0  0  0  0  0  0
  137.3811  151.6572  144.3961 C   0  0  0  0  0  0  0  0  0  0  0  0
  139.7008  151.1089  141.6121 C   0  0  0  0  0  0  0  0  0  0  0  0
  136.7115  150.4275  144.0247 C   0  0  0  0  0  0  0  0  0  0  0  0
  137.9015  150.0212  142.3179 C   0  0  0  0  0  0  0  0  0  0  0  0
  138.2227  149.2897  141.1482 C   0  0  0  0  0  0  0  0  0  0  0  0
  136.8382  152.3621  145.4464 C   0  0  0  0  0  0  0  0  0  0  0  0
  139.7070  150.3005  140.5078 C   0  0  0  0  0  0  0  0  0  0  0  0
  136.8826  149.7394  143.1910 C   0  0  0  0  0  0  0  0  0  0  0  0
  135.5315  152.2886  145.8824 C   0  0  0  0  0  0  0  0  0  0  0  0
  139.0717  149.4905  140.3009 C   0  0  0  0  0  0  0  0  0  0  0  0
  141.0607  150.7770  139.4764 C   0  0  0  0  0  0  0  0  0  0  0  0
  1  2  1  0
  2  3  2  0
  1  4  1  0
  3  5  1  0
  1  6  2  0
  6  7  1  0
  3  8  1  0
  4  9  2  0
  5 10  2  0
  6 10  1  0
  8 11  1  0
  7 12  2  0
  9 12  1  0
  9 13  1  0
M  END
$$$$

     RDKit          3D

 13 14  0  0  0  0  0  0  0  0999 V2000
  140.3019  150.2145  139.4802 Cl  0  0  0  0  0  0  0  0  0  0  0  0
  138.6758  150.1820  140.5311 C   0  0  0  0  0  0  0  0  0  0  0  0
  137.6364  149.3800  140.0902 C   0  0  0  0  0  0  0  0  0  0  0  0
  139.2345  150.7148  141.5757 C   0  0  0  0  0  0  0  0  0  0  0  0
  138.3506  151.0464  142.3754 C   0  0  0  0  0  0  0  0  0  0  0  0
  137.5082  148.8204  138.8309 C   0  0  0  0  0  0  0  0  0  0  0  0
  136.5827  149.7696  140.9317 C   0  0  0  0  0  0  0  0  0  0  0  0
  138.6187  151.7541  143.7330 C   0  0  0  0  0  0  0  0  0  0  0  0
  137.6301  151.9667  144.4855 C   0  0  0  0  0  0  0  0  0  0  0  0
  136.4136  151.4359  144.1600 C   0  0  0  0  0  0  0  0  0  0  0  0
  136.7367  150.5070  142.2503 C   0  0  0  0  0  0  0  0  0  0  0  0
  135.9549  150.8092  143.0594 C   0  0  0  0  0  0  0  0  0  0  0  0
  135.1084  151.6590  145.4468 Cl  0  0  0  0  0  0  0  0  0  0  0  0
  1  2  1  0
  2  3  1  0
  2  4  2  0
  4  5  1  0
  3  6  1  0
  3  7  2  0
  5  8  1  0
  8  9  2  0
  9 10  1  0
  5 11  2  0
  7 11  1  0
 10 12  2  0
 11 12  1  0
 10 13  1  0
M  END
$$$$

     RDKit          3D

 13 13  0  0  0  0  0  0  0  0999 V2000
  138.7240  151.5758  143.3184 C   0  0  0  0  0  0  0  0  0  0  0  0
  137.9193  152.3258  143.7536 C   0  0  0  0  0  0  0  0  0  0  0  0
  136.7526  151.8075  144.4391 C   0  0  0  0  0  0  0  0  0  0  0  0
  138.5730  150.7616  142.3607 C   0  0  0  0  0  0  0  0  0  0  0  0
  136.5022  150.5129  144.1734 C   0  0  0  0  0  0  0  0  0  0  0  0
  139.5484  150.5136  141.3201 C   0  0  0  0  0  0  0  0  0  0  0  0
  137.3290  149.9593  142.5491 C   0  0  0  0  0  0  0  0  0  0  0  0
  135.7673  152.4773  145.5077 C   0  0  0  0  0  0  0  0  0  0  0  0
  134.8257  151.7626  146.0525 C   0  0  0  0  0  0  0  0  0  0  0  0
  139.2214  149.9573  140.1197 C   0  0  0  0  0  0  0  0  0  0  0  0
  138.0840  149.5061  139.8059 C   0  0  0  0  0  0  0  0  0  0  0  0
  140.2880  149.9926  139.0920 C   0  0  0  0  0  0  0  0  0  0  0  0
  136.1427  153.5715  145.5061 O   0  0  0  0  0  0  0  0  0  0  0  0
  1  2  1  0
  2  3  2  0
  1  4  2  0
  3  5  1  0
  4  6  1  0
  4  7  1  0
  5  7  2  0
  3  8  1  0
  8  9  1  0
  6 10  1  0
 10 11  2  0
 10 12  1  0
  8 13  2  0
M  END
$$$$

     RDKit          3D

 13 14  0  0  0  0  0  0  0  0999 V2000
  138.7086  151.1469  142.6266 C   0  0  0  0  0  0  0  0  0  0  0  0
  138.5250  151.9368  143.5112 C   0  0  0  0  0  0  0  0  0  0  0  0
  137.3811  151.6572  144.3961 C   0  0  0  0  0  0  0  0  0  0  0  0
  139.7008  151.1089  141.6121 C   0  0  0  0  0  0  0  0  0  0  0  0
  136.7115  150.4275  144.0247 C   0  0  0  0  0  0  0  0  0  0  0  0
  139.4933  150.4714  140.3262 C   0  0  0  0  0  0  0  0  0  0  0  0
  138.3034  149.7102  140.4068 C   0  0  0  0  0  0  0  0  0  0  0  0
  137.7753  150.0657  142.1256 C   0  0  0  0  0  0  0  0  0  0  0  0
  140.6852  150.7038  139.5336 C   0  0  0  0  0  0  0  0  0  0  0  0
  136.7272  152.3380  145.4868 C   0  0  0  0  0  0  0  0  0  0  0  0
  135.4500  152.4613  145.5105 C   0  0  0  0  0  0  0  0  0  0  0  0
  137.4462  149.5060  141.2351 C   0  0  0  0  0  0  0  0  0  0  0  0
  136.7999  149.8500  143.2052 N   0  0  0  0  0  0  0  0  0  0  0  0
  1  2  1  0
  2  3  2  0
  1  4  1  0
  3  5  1  0
  4  6  2  0
  6  7  1  0
  1  8  2  0
  6  9  1  0
  3 10  1  0
 10 11  1  0
  7 12  2  0
  8 12  1  0
  5 13  1  0
  8 13  1  0
M  END
$$$$

     RDKit          3D

 13 14  0  0  0  0  0  0  0  0999 V2000
  140.3019  150.2145  139.4802 Cl  0  0  0  0  0  0  0  0  0  0  0  0
  138.6758  150.1820  140.5311 C   0  0  0  0  0  0  0  0  0  0  0  0
  137.6364  149.3800  140.0902 C   0  0  0  0  0  0  0  0  0  0  0  0
  136.4360  149.4525  140.8154 C   0  0  0  0  0  0  0  0  0  0  0  0
  138.9773  150.6955  141.6819 C   0  0  0  0  0  0  0  0  0  0  0  0
  136.5018  150.3461  141.8117 C   0  0  0  0  0  0  0  0  0  0  0  0
  135.2689  150.6056  142.7086 C   0  0  0  0  0  0  0  0  0  0  0  0
  135.6212  151.3328  143.9590 C   0  0  0  0  0  0  0  0  0  0  0  0
  137.7575  150.8972  142.4541 C   0  0  0  0  0  0  0  0  0  0  0  0
  137.7358  151.5287  143.7906 C   0  0  0  0  0  0  0  0  0  0  0  0
  134.2983  151.6250  144.8103 C   0  0  0  0  0  0  0  0  0  0  0  0
  136.7924  151.7211  144.5297 C   0  0  0  0  0  0  0  0  0  0  0  0
  136.9979  152.2925  145.7671 C   0  0  0  0  0  0  0  0  0  0  0  0
  1  2  1  0
  2  3  2  0
  3  4  1  0
  2  5  1  0
  4  6  2  0
  6  7  1  0
  7  8  2  0
  5  9  2  0
  6  9  1  0
  9 10  1  0
  8 11  1  0
  8 12  1  0
 10 12  1  0
 12 13  2  0
M  END
$$$$

     RDKit          3D

 13 14  0  0  0  0  0  0  0  0999 V2000
  139.2620  151.0921  142.4039 C   0  0  0  0  0  0  0  0  0  0  0  0
  138.8618  152.1315  142.9023 C   0  0  0  0  0  0  0  0  0  0  0  0
  137.7838  151.8936  143.8932 C   0  0  0  0  0  0  0  0  0  0  0  0
  137.3596  150.5423  144.0627 C   0  0  0  0  0  0  0  0  0  0  0  0
  136.3232  150.4823  145.1226 C   0  0  0  0  0  0  0  0  0  0  0  0
  139.2662  149.7547  142.8065 C   0  0  0  0  0  0  0  0  0  0  0  0
  138.1300  149.4969  143.5633 C   0  0  0  0  0  0  0  0  0  0  0  0
  140.3208  151.2825  141.2610 C   0  0  0  0  0  0  0  0  0  0  0  0
  139.9126  150.4639  140.0100 C   0  0  0  0  0  0  0  0  0  0  0  0
  135.7591  151.6218  145.4001 C   0  0  0  0  0  0  0  0  0  0  0  0
  137.1524  152.8988  144.6330 C   0  0  0  0  0  0  0  0  0  0  0  0
  134.5067  151.4532  146.3820 C   0  0  0  0  0  0  0  0  0  0  0  0
  136.0955  152.8021  145.3958 C   0  0  0  0  0  0  0  0  0  0  0  0
  1  2  1  0
  2  3  2  0
  3  4  1  0
  4  5  2  0
  1  6  1  0
  4  7  1  0
  6  7  2  0
  1  8  1  0
  8  9  1  0
  5 10  1  0
  3 11  1  0
 10 12  1  0
 10 13  2  0
 11 13  2  0
M  END
$$$$

     RDKit          3D

 13 14  0  0  0  0  0  0  0  0999 V2000
  138.7086  151.1469  142.6266 C   0  0  0  0  0  0  0  0  0  0  0  0
  138.5250  151.9368  143.5112 C   0  0  0  0  0  0  0  0  0  0  0  0
  137.3811  151.6572  144.3961 C   0  0  0  0  0  0  0  0  0  0  0  0
  139.7008  151.1089  141.6121 C   0  0  0  0  0  0  0  0  0  0  0  0
  136.7115  150.4275  144.0247 C   0  0  0  0  0  0  0  0  0  0  0  0
  139.4933  150.4714  140.3262 C   0  0  0  0  0  0  0  0  0  0  0  0
  138.3034  149.7102  140.4068 C   0  0  0  0  0  0  0  0  0  0  0  0
  137.7401  150.0401  142.1735 C   0  0  0  0  0  0  0  0  0  0  0  0
  137.0235  152.5597  145.4530 C   0  0  0  0  0  0  0  0  0  0  0  0
  137.4360  149.4913  141.2908 C   0  0  0  0  0  0  0  0  0  0  0  0
  135.6356  152.5306  145.8257 C   0  0  0  0  0  0  0  0  0  0  0  0
  136.9654  149.8417  143.2049 N   0  0  0  0  0  0  0  0  0  0  0  0
  140.5099  150.6481  139.2453 C   0  0  0  0  0  0  0  0  0  0  0  0
  1  2  1  0
  2  3  2  0
  1  4  1  0
  3  5  1  0
  4  6  2  0
  6  7  1  0
  1  8  2  0
  3  9  1  0
  7 10  2  0
  8 10  1  0
  9 11  1  0
  5 12  2  0
  8 12  1  0
  6 13  1  0
M  END
$$$$

     RDKit          3D

 13 14  0  0  0  0  0  0  0  0999 V2000
  140.3019  150.2145  139.4802 Cl  0  0  0  0  0  0  0  0  0  0  0  0
  138.6758  150.1820  140.5311 C   0  0  0  0  0  0  0  0  0  0  0  0
  137.6364  149.3800  140.0902 C   0  0  0  0  0  0  0  0  0  0  0  0
  136.4360  149.4525  140.8154 C   0  0  0  0  0  0  0  0  0  0  0  0
  139.1314  150.7497  141.5093 C   0  0  0  0  0  0  0  0  0  0  0  0
  138.1131  150.7916  142.6542 C   0  0  0  0  0  0  0  0  0  0  0  0
  135.1492  149.2317  140.4372 C   0  0  0  0  0  0  0  0  0  0  0  0
  138.4196  151.3905  143.9383 C   0  0  0  0  0  0  0  0  0  0  0  0
  136.7853  150.4836  142.9834 C   0  0  0  0  0  0  0  0  0  0  0  0
  136.1033  150.0266  142.1005 C   0  0  0  0  0  0  0  0  0  0  0  0
  136.2597  150.7690  144.2439 C   0  0  0  0  0  0  0  0  0  0  0  0
  135.0836  150.6709  144.7330 C   0  0  0  0  0  0  0  0  0  0  0  0
  137.4533  151.2935  144.8522 C   0  0  0  0  0  0  0  0  0  0  0  0
  1  2  1  0
  2  3  2  0
  3  4  1  0
  2  5  1  0
  5  6  2  0
  4  7  1  0
  6  8  1  0
  6  9  1  0
  4 10  1  0
  9 10  1  0
  9 11  2  0
 11 12  1  0
  8 13  2  0
 11 13  1  0
M  END
$$$$

     RDKit          3D

 13 14  0  0  0  0  0  0  0  0999 V2000
  138.9697  151.3146  142.5684 C   0  0  0  0  0  0  0  0  0  0  0  0
  138.6018  152.0883  143.2657 C   0  0  0  0  0  0  0  0  0  0  0  0
  137.6687  151.8115  144.0583 C   0  0  0  0  0  0  0  0  0  0  0  0
  139.9926  151.3705  141.4268 C   0  0  0  0  0  0  0  0  0  0  0  0
  137.5512  150.6294  144.9277 C   0  0  0  0  0  0  0  0  0  0  0  0
  139.6588  150.7358  140.2572 C   0  0  0  0  0  0  0  0  0  0  0  0
  138.5025  150.0408  140.2323 C   0  0  0  0  0  0  0  0  0  0  0  0
  137.6103  149.8214  141.4294 C   0  0  0  0  0  0  0  0  0  0  0  0
  140.5682  150.6752  139.1701 C   0  0  0  0  0  0  0  0  0  0  0  0
  138.0190  150.3841  142.5786 C   0  0  0  0  0  0  0  0  0  0  0  0
  137.4008  149.8193  143.7426 O   0  0  0  0  0  0  0  0  0  0  0  0
  138.0235  149.5724  138.9903 C   0  0  0  0  0  0  0  0  0  0  0  0
  136.9671  148.9930  138.7254 C   0  0  0  0  0  0  0  0  0  0  0  0
  1  2  2  0
  2  3  1  0
  1  4  1  0
  3  5  2  0
  4  6  2  0
  6  7  1  0
  7  8  1  0
  6  9  1  0
  1 10  1  0
  8 10  2  0
  5 11  1  0
 10 11  1  0
  7 12  2  3
 12 13  1  0
M  END
$$$$

     RDKit          3D

 13 14  0  0  0  0  0  0  0  0999 V2000
  138.7086  151.1469  142.6266 C   0  0  0  0  0  0  0  0  0  0  0  0
  138.5250  151.9368  143.5112 C   0  0  0  0  0  0  0  0  0  0  0  0
  137.3811  151.6572  144.3961 C   0  0  0  0  0  0  0  0  0  0  0  0
  139.7008  151.1089  141.6121 C   0  0  0  0  0  0  0  0  0  0  0  0
  136.7115  150.4275  144.0247 C   0  0  0  0  0  0  0  0  0  0  0  0
  137.9015  150.0212  142.3179 C   0  0  0  0  0  0  0  0  0  0  0  0
  138.2227  149.2897  141.1482 C   0  0  0  0  0  0  0  0  0  0  0  0
  136.8382  152.3621  145.4464 C   0  0  0  0  0  0  0  0  0  0  0  0
  139.7070  150.3005  140.5078 C   0  0  0  0  0  0  0  0  0  0  0  0
  136.8915  149.7491  143.1709 C   0  0  0  0  0  0  0  0  0  0  0  0
  139.0474  149.3985  140.2882 C   0  0  0  0  0  0  0  0  0  0  0  0
  135.5180  152.2887  145.8571 C   0  0  0  0  0  0  0  0  0  0  0  0
  141.1012  150.8706  139.2969 Cl  0  0  0  0  0  0  0  0  0  0  0  0
  1  2  1  0
  2  3  2  0
  1  4  1  0
  3  5  1  0
  1  6  2  0
  6  7  1  0
  3  8  1  0
  4  9  2  0
  5 10  2  0
  6 10  1  0
  7 11  2  0
  9 11  1  0
  8 12  1  0
  9 13  1  0
M  END
$$$$

     RDKit          3D

 13 14  0  0  0  0  0  0  0  0999 V2000
  139.0010  149.7643  140.3643 C   0  0  0  0  0  0  0  0  0  0  0  0
  138.7144  149.5449  139.1247 C   0  0  0  0  0  0  0  0  0  0  0  0
  138.1840  150.1020  141.2852 C   0  0  0  0  0  0  0  0  0  0  0  0
  137.3200  149.5871  138.6815 C   0  0  0  0  0  0  0  0  0  0  0  0
  136.4668  149.5647  139.6600 C   0  0  0  0  0  0  0  0  0  0  0  0
  138.6203  150.4924  142.6513 C   0  0  0  0  0  0  0  0  0  0  0  0
  137.7616  150.9851  143.6296 C   0  0  0  0  0  0  0  0  0  0  0  0
  136.4770  150.9768  143.2092 C   0  0  0  0  0  0  0  0  0  0  0  0
  136.7704  150.0241  141.0188 C   0  0  0  0  0  0  0  0  0  0  0  0
  135.4317  151.4460  144.1527 C   0  0  0  0  0  0  0  0  0  0  0  0
  136.1335  150.4081  142.0126 C   0  0  0  0  0  0  0  0  0  0  0  0
  135.5443  152.6089  144.7472 C   0  0  0  0  0  0  0  0  0  0  0  0
  136.5364  153.5214  144.7287 C   0  0  0  0  0  0  0  0  0  0  0  0
  1  2  2  0
  1  3  1  0
  2  4  1  0
  4  5  2  0
  3  6  1  0
  6  7  2  0
  7  8  1  0
  3  9  2  0
  5  9  1  0
  8 10  1  0
  8 11  2  0
  9 11  1  0
 10 12  1  0
 12 13  2  0
M  END
$$$$

     RDKit          3D

 13 14  0  0  0  0  0  0  0  0999 V2000
  139.2620  151.0921  142.4039 C   0  0  0  0  0  0  0  0  0  0  0  0
  138.8618  152.1315  142.9023 C   0  0  0  0  0  0  0  0  0  0  0  0
  137.7838  151.8936  143.8932 C   0  0  0  0  0  0  0  0  0  0  0  0
  137.3596  150.5423  144.0627 C   0  0  0  0  0  0  0  0  0  0  0  0
  136.3232  150.4823  145.1226 C   0  0  0  0  0  0  0  0  0  0  0  0
  139.2662  149.7547  142.8065 C   0  0  0  0  0  0  0  0  0  0  0  0
  138.1300  149.4969  143.5633 C   0  0  0  0  0  0  0  0  0  0  0  0
  135.7805  151.6674  145.3651 C   0  0  0  0  0  0  0  0  0  0  0  0
  134.8683  151.9355  146.3406 C   0  0  0  0  0  0  0  0  0  0  0  0
  135.9367  152.7330  144.6697 C   0  0  0  0  0  0  0  0  0  0  0  0
  140.2514  151.3314  141.1988 C   0  0  0  0  0  0  0  0  0  0  0  0
  140.0019  150.4213  140.0449 C   0  0  0  0  0  0  0  0  0  0  0  0
  137.2948  152.9056  144.2705 C   0  0  0  0  0  0  0  0  0  0  0  0
  1  2  1  0
  2  3  2  0
  3  4  1  0
  4  5  2  0
  1  6  1  0
  4  7  1  0
  6  7  2  0
  5  8  1  0
  8  9  1  0
  8 10  2  0
  1 11  1  0
 11 12  1  0
  3 13  1  0
 10 13  1  0
M  END
$$$$

     RDKit          3D

 13 13  0  0  0  0  0  0  0  0999 V2000
  139.5550  150.5075  140.4438 C   0  0  0  0  0  0  0  0  0  0  0  0
  139.2165  150.0149  139.3725 C   0  0  0  0  0  0  0  0  0  0  0  0
  138.8581  150.3072  141.5852 C   0  0  0  0  0  0  0  0  0  0  0  0
  139.2270  150.3459  142.8891 C   0  0  0  0  0  0  0  0  0  0  0  0
  138.5608  151.2821  143.6742 C   0  0  0  0  0  0  0  0  0  0  0  0
  137.8570  149.4552  139.3184 C   0  0  0  0  0  0  0  0  0  0  0  0
  137.4753  151.5817  143.4203 C   0  0  0  0  0  0  0  0  0  0  0  0
  137.3786  148.8877  138.1379 C   0  0  0  0  0  0  0  0  0  0  0  0
  136.7351  152.5036  144.4173 C   0  0  0  0  0  0  0  0  0  0  0  0
  137.4806  150.0694  141.2329 C   0  0  0  0  0  0  0  0  0  0  0  0
  137.0073  149.6820  140.3588 C   0  0  0  0  0  0  0  0  0  0  0  0
  135.5833  152.1007  145.1002 C   0  0  0  0  0  0  0  0  0  0  0  0
  134.8490  152.9180  145.8766 C   0  0  0  0  0  0  0  0  0  0  0  0
  1  2  2  0
  1  3  1  0
  3  4  1  0
  4  5  2  3
  2  6  1  0
  5  7  1  0
  6  8  1  0
  7  9  1  0
  3 10  2  0
  6 11  2  0
 10 11  1  0
  9 12  2  3
 12 13  1  0
M  END
$$$$

     RDKit          3D

 13 14  0  0  0  0  0  0  0  0999 V2000
  139.0010  149.7643  140.3643 C   0  0  0  0  0  0  0  0  0  0  0  0
  138.7144  149.5449  139.1247 C   0  0  0  0  0  0  0  0  0  0  0  0
  138.1840  150.1020  141.2852 C   0  0  0  0  0  0  0  0  0  0  0  0
  137.3200  149.5871  138.6815 C   0  0  0  0  0  0  0  0  0  0  0  0
  136.4668  149.5647  139.6600 C   0  0  0  0  0  0  0  0  0  0  0  0
  138.6203  150.4924  142.6513 C   0  0  0  0  0  0  0  0  0  0  0  0
  137.7616  150.9851  143.6296 C   0  0  0  0  0  0  0  0  0  0  0  0
  136.4770  150.9768  143.2092 C   0  0  0  0  0  0  0  0  0  0  0  0
  136.7704  150.0241  141.0188 C   0  0  0  0  0  0  0  0  0  0  0  0
  135.4317  151.4460  144.1527 C   0  0  0  0  0  0  0  0  0  0  0  0
  136.1335  150.4081  142.0126 C   0  0  0  0  0  0  0  0  0  0  0  0
  135.1492  151.0167  145.1858 C   0  0  0  0  0  0  0  0  0  0  0  0
  135.4094  151.8035  146.2732 C   0  0  0  0  0  0  0  0  0  0  0  0
  1  2  2  0
  1  3  1  0
  2  4  1  0
  4  5  2  0
  3  6  1  0
  6  7  2  0
  7  8  1  0
  3  9  2  0
  5  9  1  0
  8 10  1  0
  8 11  2  0
  9 11  1  0
 10 12  1  0
 12 13  1  0
M  END
$$$$

     RDKit          3D

 13 14  0  0  0  0  0  0  0  0999 V2000
  139.2620  151.0921  142.4039 C   0  0  0  0  0  0  0  0  0  0  0  0
  138.8618  152.1315  142.9023 C   0  0  0  0  0  0  0  0  0  0  0  0
  137.9130  151.7995  143.7812 C   0  0  0  0  0  0  0  0  0  0  0  0
  138.8259  150.3979  141.6057 C   0  0  0  0  0  0  0  0  0  0  0  0
  137.6638  149.9538  141.7688 C   0  0  0  0  0  0  0  0  0  0  0  0
  137.5091  152.6033  144.9557 C   0  0  0  0  0  0  0  0  0  0  0  0
  136.8131  150.7653  143.7756 C   0  0  0  0  0  0  0  0  0  0  0  0
  136.7050  150.0802  142.7142 C   0  0  0  0  0  0  0  0  0  0  0  0
  139.5408  149.7212  140.4013 C   0  0  0  0  0  0  0  0  0  0  0  0
  136.2620  152.9717  145.1869 C   0  0  0  0  0  0  0  0  0  0  0  0
  135.2510  152.0001  145.1574 C   0  0  0  0  0  0  0  0  0  0  0  0
  135.6208  150.8558  144.6199 C   0  0  0  0  0  0  0  0  0  0  0  0
  137.0275  149.4751  140.6885 O   0  0  0  0  0  0  0  0  0  0  0  0
  1  2  1  0
  2  3  2  0
  1  4  2  0
  4  5  1  0
  3  6  1  0
  3  7  1  0
  5  8  1  0
  7  8  1  0
  4  9  1  0
  6 10  2  0
 10 11  1  0
  7 12  1  0
 11 12  1  0
  5 13  2  0
M  END
$$$$

     RDKit          3D

 13 14  0  0  0  0  0  0  0  0999 V2000
  139.3428  149.9936  140.5898 C   0  0  0  0  0  0  0  0  0  0  0  0
  138.9752  149.9369  139.3605 C   0  0  0  0  0  0  0  0  0  0  0  0
  138.5862  150.0774  141.6376 C   0  0  0  0  0  0  0  0  0  0  0  0
  137.2156  149.9043  141.8335 C   0  0  0  0  0  0  0  0  0  0  0  0
  136.5021  149.8247  140.5813 C   0  0  0  0  0  0  0  0  0  0  0  0
  139.1845  150.3562  143.1502 C   0  0  0  0  0  0  0  0  0  0  0  0
  138.3557  151.1252  143.9047 C   0  0  0  0  0  0  0  0  0  0  0  0
  136.5232  150.1791  143.0233 C   0  0  0  0  0  0  0  0  0  0  0  0
  137.0670  150.7700  144.0139 C   0  0  0  0  0  0  0  0  0  0  0  0
  136.3026  151.2910  145.1627 C   0  0  0  0  0  0  0  0  0  0  0  0
  137.3808  149.7329  139.3152 C   0  0  0  0  0  0  0  0  0  0  0  0
  136.5765  151.2811  146.4170 O   0  0  0  0  0  0  0  0  0  0  0  0
  135.0604  151.9186  145.0439 C   0  0  0  0  0  0  0  0  0  0  0  0
  1  2  2  0
  1  3  1  0
  3  4  1  0
  4  5  2  0
  3  6  1  0
  6  7  2  0
  4  8  1  0
  7  9  1  0
  8  9  2  0
  9 10  1  0
  2 11  1  0
  5 11  1  0
 10 12  2  0
 10 13  1  0
M  END
$$$$

     RDKit          3D

 13 14  0  0  0  0  0  0  0  0999 V2000
  139.3428  149.9936  140.5898 C   0  0  0  0  0  0  0  0  0  0  0  0
  138.9752  149.9369  139.3605 C   0  0  0  0  0  0  0  0  0  0  0  0
  138.5862  150.0774  141.6376 C   0  0  0  0  0  0  0  0  0  0  0  0
  137.2156  149.9043  141.8335 C   0  0  0  0  0  0  0  0  0  0  0  0
  136.5021  149.8247  140.5813 C   0  0  0  0  0  0  0  0  0  0  0  0
  139.1845  150.3562  143.1502 C   0  0  0  0  0  0  0  0  0  0  0  0
  138.3557  151.1252  143.9047 C   0  0  0  0  0  0  0  0  0  0  0  0
  136.5232  150.1791  143.0233 C   0  0  0  0  0  0  0  0  0  0  0  0
  135.1657  149.6396  140.4783 C   0  0  0  0  0  0  0  0  0  0  0  0
  137.1196  150.7461  144.0853 C   0  0  0  0  0  0  0  0  0  0  0  0
  137.4100  149.7345  139.3913 C   0  0  0  0  0  0  0  0  0  0  0  0
  136.2595  151.3741  145.2539 C   0  0  0  0  0  0  0  0  0  0  0  0
  136.6464  151.5625  146.4590 C   0  0  0  0  0  0  0  0  0  0  0  0
  1  2  2  0
  1  3  1  0
  3  4  1  0
  4  5  2  0
  3  6  1  0
  6  7  2  0
  4  8  1  0
  5  9  1  0
  7 10  1  0
  8 10  2  0
  2 11  1  0
  5 11  1  0
 10 12  1  0
 12 13  2  0
M  END
$$$$

     RDKit          3D

 13 14  0  0  0  0  0  0  0  0999 V2000
  138.9697  151.3146  142.5684 C   0  0  0  0  0  0  0  0  0  0  0  0
  138.6018  152.0883  143.2657 C   0  0  0  0  0  0  0  0  0  0  0  0
  137.5210  151.7905  144.2146 C   0  0  0  0  0  0  0  0  0  0  0  0
  139.9450  151.4362  141.4348 C   0  0  0  0  0  0  0  0  0  0  0  0
  137.4509  150.5150  144.7895 C   0  0  0  0  0  0  0  0  0  0  0  0
  139.6483  150.6881  140.3006 C   0  0  0  0  0  0  0  0  0  0  0  0
  138.5290  149.9149  140.3372 C   0  0  0  0  0  0  0  0  0  0  0  0
  137.6578  149.7051  141.5159 C   0  0  0  0  0  0  0  0  0  0  0  0
  138.0468  150.4771  142.6111 C   0  0  0  0  0  0  0  0  0  0  0  0
  136.4796  152.5504  144.4594 C   0  0  0  0  0  0  0  0  0  0  0  0
  137.4723  150.1130  143.7827 N   0  0  0  0  0  0  0  0  0  0  0  0
  136.1055  153.1827  145.4570 O   0  0  0  0  0  0  0  0  0  0  0  0
  140.5348  150.7594  139.2194 C   0  0  0  0  0  0  0  0  0  0  0  0
  1  2  2  0
  2  3  1  0
  1  4  1  0
  3  5  2  0
  4  6  2  0
  6  7  1  0
  7  8  2  0
  1  9  1  0
  8  9  1  0
  3 10  1  0
  5 11  1  0
  9 11  2  0
 10 12  1  0
  6 13  1  0
M  END
$$$$

     RDKit          3D

 13 14  0  0  0  0  0  0  0  0999 V2000
  140.3019  150.2145  139.4802 Cl  0  0  0  0  0  0  0  0  0  0  0  0
  138.6758  150.1820  140.5311 C   0  0  0  0  0  0  0  0  0  0  0  0
  137.6364  149.3800  140.0902 C   0  0  0  0  0  0  0  0  0  0  0  0
  136.4360  149.4525  140.8154 C   0  0  0  0  0  0  0  0  0  0  0  0
  139.1314  150.7497  141.5093 C   0  0  0  0  0  0  0  0  0  0  0  0
  138.1131  150.7916  142.6542 C   0  0  0  0  0  0  0  0  0  0  0  0
  135.1492  149.2317  140.4372 C   0  0  0  0  0  0  0  0  0  0  0  0
  138.4196  151.3905  143.9383 C   0  0  0  0  0  0  0  0  0  0  0  0
  136.7853  150.4836  142.9834 C   0  0  0  0  0  0  0  0  0  0  0  0
  136.1033  150.0266  142.1005 C   0  0  0  0  0  0  0  0  0  0  0  0
  136.2597  150.7690  144.2439 C   0  0  0  0  0  0  0  0  0  0  0  0
  135.0836  150.6709  144.7330 C   0  0  0  0  0  0  0  0  0  0  0  0
  137.4404  151.3320  144.9317 C   0  0  0  0  0  0  0  0  0  0  0  0
  1  2  1  0
  2  3  2  0
  3  4  1  0
  2  5  1  0
  5  6  2  0
  4  7  1  0
  6  8  1  0
  6  9  1  0
  4 10  1  0
  9 10  1  0
  9 11  2  0
 11 12  1  0
  8 13  1  0
 11 13  1  0
M  END
$$$$

     RDKit          3D

 13 14  0  0  0  0  0  0  0  0999 V2000
  138.9697  151.3146  142.5684 C   0  0  0  0  0  0  0  0  0  0  0  0
  138.6018  152.0883  143.2657 C   0  0  0  0  0  0  0  0  0  0  0  0
  139.7627  151.4691  141.3553 C   0  0  0  0  0  0  0  0  0  0  0  0
  137.7629  151.7021  144.3622 C   0  0  0  0  0  0  0  0  0  0  0  0
  137.3916  150.2976  144.2722 C   0  0  0  0  0  0  0  0  0  0  0  0
  139.5884  150.5272  140.3063 C   0  0  0  0  0  0  0  0  0  0  0  0
  138.7536  149.4626  140.7016 C   0  0  0  0  0  0  0  0  0  0  0  0
  137.8316  149.5886  141.7036 C   0  0  0  0  0  0  0  0  0  0  0  0
  138.0887  150.1737  142.9585 C   0  0  0  0  0  0  0  0  0  0  0  0
  137.1794  152.3260  145.5642 C   0  0  0  0  0  0  0  0  0  0  0  0
  136.0463  152.7891  145.4644 C   0  0  0  0  0  0  0  0  0  0  0  0
  140.4271  150.5535  139.2200 C   0  0  0  0  0  0  0  0  0  0  0  0
  134.8888  152.1658  146.0357 C   0  0  0  0  0  0  0  0  0  0  0  0
  1  2  1  0
  1  3  1  0
  2  4  2  0
  4  5  1  0
  3  6  2  0
  6  7  1  0
  7  8  2  0
  1  9  2  0
  5  9  1  0
  8  9  1  0
  4 10  1  0
 10 11  1  0
  6 12  1  0
 11 13  1  0
M  END
$$$$

     RDKit          3D

 13 13  0  0  0  0  0  0  0  0999 V2000
  138.7240  151.5758  143.3184 C   0  0  0  0  0  0  0  0  0  0  0  0
  137.9193  152.3258  143.7536 C   0  0  0  0  0  0  0  0  0  0  0  0
  136.7526  151.8075  144.4391 C   0  0  0  0  0  0  0  0  0  0  0  0
  138.5730  150.7616  142.3607 C   0  0  0  0  0  0  0  0  0  0  0  0
  136.5022  150.5129  144.1734 C   0  0  0  0  0  0  0  0  0  0  0  0
  139.5484  150.5136  141.3201 C   0  0  0  0  0  0  0  0  0  0  0  0
  137.3290  149.9593  142.5491 C   0  0  0  0  0  0  0  0  0  0  0  0
  135.7673  152.4773  145.5077 C   0  0  0  0  0  0  0  0  0  0  0  0
  134.8257  151.7626  146.0525 C   0  0  0  0  0  0  0  0  0  0  0  0
  139.2214  149.9573  140.1197 C   0  0  0  0  0  0  0  0  0  0  0  0
  138.0840  149.5061  139.8059 C   0  0  0  0  0  0  0  0  0  0  0  0
  140.2711  149.9536  139.0906 C   0  0  0  0  0  0  0  0  0  0  0  0
  135.9028  153.7957  145.6893 C   0  0  0  0  0  0  0  0  0  0  0  0
  1  2  1  0
  2  3  2  0
  1  4  2  0
  3  5  1  0
  4  6  1  0
  4  7  1  0
  5  7  2  0
  3  8  1  0
  8  9  1  0
  6 10  1  0
 10 11  2  0
 10 12  1  0
  8 13  2  0
M  END
$$$$

     RDKit          3D

 13 14  0  0  0  0  0  0  0  0999 V2000
  139.3428  149.9936  140.5898 C   0  0  0  0  0  0  0  0  0  0  0  0
  138.9752  149.9369  139.3605 C   0  0  0  0  0  0  0  0  0  0  0  0
  138.5862  150.0774  141.6376 C   0  0  0  0  0  0  0  0  0  0  0  0
  137.6061  149.8652  139.0267 C   0  0  0  0  0  0  0  0  0  0  0  0
  136.7960  149.6544  140.0716 C   0  0  0  0  0  0  0  0  0  0  0  0
  139.0847  150.3093  143.0275 C   0  0  0  0  0  0  0  0  0  0  0  0
  138.1846  150.8565  144.0192 C   0  0  0  0  0  0  0  0  0  0  0  0
  135.2933  149.6678  139.8622 C   0  0  0  0  0  0  0  0  0  0  0  0
  137.0852  151.2672  143.6119 C   0  0  0  0  0  0  0  0  0  0  0  0
  136.5145  151.0780  142.4104 C   0  0  0  0  0  0  0  0  0  0  0  0
  137.1571  150.2834  141.5041 C   0  0  0  0  0  0  0  0  0  0  0  0
  136.0850  152.2275  144.8217 S   0  0  0  0  0  0  0  0  0  0  0  0
  135.4139  151.3506  145.7333 C   0  0  0  0  0  0  0  0  0  0  0  0
  1  2  2  0
  1  3  1  0
  2  4  1  0
  4  5  2  0
  3  6  1  0
  6  7  2  0
  5  8  1  0
  7  9  1  0
  9 10  2  0
  3 11  2  0
  5 11  1  0
 10 11  1  0
  9 12  1  0
 12 13  1  0
M  END
$$$$

     RDKit          3D

 13 14  0  0  0  0  0  0  0  0999 V2000
  140.3019  150.2145  139.4802 Cl  0  0  0  0  0  0  0  0  0  0  0  0
  138.6758  150.1820  140.5311 C   0  0  0  0  0  0  0  0  0  0  0  0
  137.6364  149.3800  140.0902 C   0  0  0  0  0  0  0  0  0  0  0  0
  137.5436  148.9622  138.7410 C   0  0  0  0  0  0  0  0  0  0  0  0
  138.4827  150.4324  141.7166 C   0  0  0  0  0  0  0  0  0  0  0  0
  136.4911  149.4153  140.9672 C   0  0  0  0  0  0  0  0  0  0  0  0
  137.3926  150.3484  142.5006 C   0  0  0  0  0  0  0  0  0  0  0  0
  139.7583  151.2525  142.5446 C   0  0  0  0  0  0  0  0  0  0  0  0
  137.3451  150.9385  143.9467 C   0  0  0  0  0  0  0  0  0  0  0  0
  136.2666  149.8655  142.1031 C   0  0  0  0  0  0  0  0  0  0  0  0
  138.4630  151.2638  144.6233 C   0  0  0  0  0  0  0  0  0  0  0  0
  136.0839  151.0717  144.6434 C   0  0  0  0  0  0  0  0  0  0  0  0
  139.6852  151.5369  143.7819 C   0  0  0  0  0  0  0  0  0  0  0  0
  1  2  1  0
  2  3  2  0
  3  4  1  0
  2  5  1  0
  3  6  1  0
  5  7  2  0
  5  8  1  0
  7  9  1  0
  6 10  2  0
  7 10  1  0
  9 11  2  0
  9 12  1  0
  8 13  2  0
 11 13  1  0
M  END
$$$$

     RDKit          3D

 13 14  0  0  0  0  0  0  0  0999 V2000
  139.0010  149.7643  140.3643 C   0  0  0  0  0  0  0  0  0  0  0  0
  138.7144  149.5449  139.1247 C   0  0  0  0  0  0  0  0  0  0  0  0
  138.1840  150.1020  141.2852 C   0  0  0  0  0  0  0  0  0  0  0  0
  137.3200  149.5871  138.6815 C   0  0  0  0  0  0  0  0  0  0  0  0
  136.9839  149.1440  137.4603 O   0  0  0  0  0  0  0  0  0  0  0  0
  136.5120  149.8334  139.7504 C   0  0  0  0  0  0  0  0  0  0  0  0
  136.8275  150.1526  141.0382 C   0  0  0  0  0  0  0  0  0  0  0  0
  138.5748  150.4812  142.6527 C   0  0  0  0  0  0  0  0  0  0  0  0
  135.9105  150.4474  142.0009 C   0  0  0  0  0  0  0  0  0  0  0  0
  139.9690  150.5092  143.0007 C   0  0  0  0  0  0  0  0  0  0  0  0
  137.7444  150.7976  143.4900 C   0  0  0  0  0  0  0  0  0  0  0  0
  138.1216  151.1500  144.9125 C   0  0  0  0  0  0  0  0  0  0  0  0
  136.3005  150.8499  143.3364 C   0  0  0  0  0  0  0  0  0  0  0  0
  1  2  2  0
  1  3  1  0
  2  4  1  0
  4  5  2  0
  4  6  1  0
  3  7  1  0
  6  7  1  0
  3  8  2  0
  7  9  2  0
  8 10  1  0
  8 11  1  0
 11 12  1  0
  9 13  1  0
 11 13  2  0
M  END
$$$$

     RDKit          3D

 13 14  0  0  0  0  0  0  0  0999 V2000
  139.3428  149.9936  140.5898 C   0  0  0  0  0  0  0  0  0  0  0  0
  138.9752  149.9369  139.3605 C   0  0  0  0  0  0  0  0  0  0  0  0
  138.5862  150.0774  141.6376 C   0  0  0  0  0  0  0  0  0  0  0  0
  137.2156  149.9043  141.8335 C   0  0  0  0  0  0  0  0  0  0  0  0
  136.5021  149.8247  140.5813 C   0  0  0  0  0  0  0  0  0  0  0  0
  139.1845  150.3562  143.1502 C   0  0  0  0  0  0  0  0  0  0  0  0
  138.3557  151.1252  143.9047 C   0  0  0  0  0  0  0  0  0  0  0  0
  137.0207  151.0827  143.8126 C   0  0  0  0  0  0  0  0  0  0  0  0
  136.3365  150.4110  142.8287 C   0  0  0  0  0  0  0  0  0  0  0  0
  136.0668  151.8284  145.0545 C   0  0  0  0  0  0  0  0  0  0  0  0
  134.9518  151.2935  145.3438 C   0  0  0  0  0  0  0  0  0  0  0  0
  134.3267  152.0600  146.4089 C   0  0  0  0  0  0  0  0  0  0  0  0
  137.5261  149.6867  139.0868 C   0  0  0  0  0  0  0  0  0  0  0  0
  1  2  2  0
  1  3  1  0
  3  4  1  0
  4  5  2  0
  3  6  1  0
  6  7  2  0
  7  8  1  0
  4  9  1  0
  8  9  2  0
  8 10  1  0
 10 11  2  3
 11 12  1  0
  2 13  1  0
  5 13  1  0
M  END
$$$$

     RDKit          3D

 13 14  0  0  0  0  0  0  0  0999 V2000
  140.3019  150.2145  139.4802 Cl  0  0  0  0  0  0  0  0  0  0  0  0
  138.6758  150.1820  140.5311 C   0  0  0  0  0  0  0  0  0  0  0  0
  137.6364  149.3800  140.0902 C   0  0  0  0  0  0  0  0  0  0  0  0
  136.4360  149.4525  140.8154 C   0  0  0  0  0  0  0  0  0  0  0  0
  138.9773  150.6955  141.6819 C   0  0  0  0  0  0  0  0  0  0  0  0
  136.5018  150.3461  141.8117 C   0  0  0  0  0  0  0  0  0  0  0  0
  135.2689  150.6056  142.7086 C   0  0  0  0  0  0  0  0  0  0  0  0
  135.7271  151.2590  143.9921 C   0  0  0  0  0  0  0  0  0  0  0  0
  137.7105  150.8860  142.4731 C   0  0  0  0  0  0  0  0  0  0  0  0
  134.9882  151.8604  144.9274 C   0  0  0  0  0  0  0  0  0  0  0  0
  135.5194  152.4417  146.1806 C   0  0  0  0  0  0  0  0  0  0  0  0
  137.9196  151.6410  143.7450 C   0  0  0  0  0  0  0  0  0  0  0  0
  137.0113  151.6019  144.2404 N   0  0  0  0  0  0  0  0  0  0  0  0
  1  2  1  0
  2  3  2  0
  3  4  1  0
  2  5  1  0
  4  6  2  0
  6  7  1  0
  7  8  1  0
  5  9  2  0
  6  9  1  0
  8 10  2  3
 10 11  1  0
  9 12  1  0
  8 13  1  0
 12 13  2  0
M  END
$$$$

     RDKit          3D

 13 14  0  0  0  0  0  0  0  0999 V2000
  140.3019  150.2145  139.4802 Cl  0  0  0  0  0  0  0  0  0  0  0  0
  138.6758  150.1820  140.5311 C   0  0  0  0  0  0  0  0  0  0  0  0
  137.6364  149.3800  140.0902 C   0  0  0  0  0  0  0  0  0  0  0  0
  138.8645  150.7144  141.4528 C   0  0  0  0  0  0  0  0  0  0  0  0
  137.8186  150.7977  142.5169 C   0  0  0  0  0  0  0  0  0  0  0  0
  138.0486  151.4509  143.8211 C   0  0  0  0  0  0  0  0  0  0  0  0
  136.6997  150.0744  142.0183 C   0  0  0  0  0  0  0  0  0  0  0  0
  136.9142  151.6355  144.5807 C   0  0  0  0  0  0  0  0  0  0  0  0
  135.5228  150.3517  142.8943 C   0  0  0  0  0  0  0  0  0  0  0  0
  137.6559  148.7258  138.8232 C   0  0  0  0  0  0  0  0  0  0  0  0
  136.4674  149.5318  140.9159 C   0  0  0  0  0  0  0  0  0  0  0  0
  135.6719  151.1244  144.2339 C   0  0  0  0  0  0  0  0  0  0  0  0
  137.1065  152.3132  145.8038 O   0  0  0  0  0  0  0  0  0  0  0  0
  1  2  1  0
  2  3  2  0
  2  4  1  0
  4  5  2  0
  5  6  1  0
  5  7  1  0
  6  8  1  0
  7  9  1  0
  3 10  1  0
  3 11  1  0
  7 11  2  0
  8 12  1  0
  9 12  1  0
  8 13  2  0
M  END
$$$$

     RDKit          3D

 13 14  0  0  0  0  0  0  0  0999 V2000
  139.2620  151.0921  142.4039 C   0  0  0  0  0  0  0  0  0  0  0  0
  138.8618  152.1315  142.9023 C   0  0  0  0  0  0  0  0  0  0  0  0
  137.9130  151.7995  143.7812 C   0  0  0  0  0  0  0  0  0  0  0  0
  138.8259  150.3979  141.6057 C   0  0  0  0  0  0  0  0  0  0  0  0
  137.6638  149.9538  141.7688 C   0  0  0  0  0  0  0  0  0  0  0  0
  137.5091  152.6033  144.9557 C   0  0  0  0  0  0  0  0  0  0  0  0
  136.8131  150.7653  143.7756 C   0  0  0  0  0  0  0  0  0  0  0  0
  135.9244  150.8037  144.8950 C   0  0  0  0  0  0  0  0  0  0  0  0
  136.9542  149.4283  140.5394 C   0  0  0  0  0  0  0  0  0  0  0  0
  135.9804  151.7966  145.6582 C   0  0  0  0  0  0  0  0  0  0  0  0
  136.7696  152.7934  145.7213 C   0  0  0  0  0  0  0  0  0  0  0  0
  134.8507  151.8959  146.7735 C   0  0  0  0  0  0  0  0  0  0  0  0
  136.7565  150.3428  142.6943 N   0  0  0  0  0  0  0  0  0  0  0  0
  1  2  1  0
  2  3  2  0
  1  4  2  0
  4  5  1  0
  3  6  1  0
  3  7  1  0
  7  8  2  0
  5  9  1  0
  8 10  1  0
  6 11  2  0
 10 11  1  0
 10 12  1  0
  5 13  2  0
  7 13  1  0
M  END
$$$$

     RDKit          3D

 13 14  0  0  0  0  0  0  0  0999 V2000
  140.3019  150.2145  139.4802 Cl  0  0  0  0  0  0  0  0  0  0  0  0
  138.6758  150.1820  140.5311 C   0  0  0  0  0  0  0  0  0  0  0  0
  137.6364  149.3800  140.0902 C   0  0  0  0  0  0  0  0  0  0  0  0
  136.4360  149.4525  140.8154 C   0  0  0  0  0  0  0  0  0  0  0  0
  139.1314  150.7497  141.5093 C   0  0  0  0  0  0  0  0  0  0  0  0
  138.1131  150.7916  142.6542 C   0  0  0  0  0  0  0  0  0  0  0  0
  135.1492  149.2317  140.4372 C   0  0  0  0  0  0  0  0  0  0  0  0
  138.4196  151.3905  143.9383 C   0  0  0  0  0  0  0  0  0  0  0  0
  136.7853  150.4836  142.9834 N   0  0  0  0  0  0  0  0  0  0  0  0
  136.2610  150.8697  144.2731 C   0  0  0  0  0  0  0  0  0  0  0  0
  136.2818  150.0511  142.1740 C   0  0  0  0  0  0  0  0  0  0  0  0
  135.1218  150.7787  144.7103 C   0  0  0  0  0  0  0  0  0  0  0  0
  137.4655  151.3822  144.8758 C   0  0  0  0  0  0  0  0  0  0  0  0
  1  2  1  0
  2  3  2  0
  3  4  1  0
  2  5  1  0
  5  6  2  0
  4  7  1  0
  6  8  1  0
  6  9  1  0
  9 10  1  0
  4 11  2  0
  9 11  1  0
 10 12  2  0
  8 13  2  0
 10 13  1  0
M  END
$$$$

     RDKit          3D

 13 14  0  0  0  0  0  0  0  0999 V2000
  140.3019  150.2145  139.4802 Cl  0  0  0  0  0  0  0  0  0  0  0  0
  138.6758  150.1820  140.5311 C   0  0  0  0  0  0  0  0  0  0  0  0
  137.6364  149.3800  140.0902 C   0  0  0  0  0  0  0  0  0  0  0  0
  136.4360  149.4525  140.8154 C   0  0  0  0  0  0  0  0  0  0  0  0
  139.1314  150.7497  141.5093 C   0  0  0  0  0  0  0  0  0  0  0  0
  138.1131  150.7916  142.6542 C   0  0  0  0  0  0  0  0  0  0  0  0
  135.1492  149.2317  140.4372 C   0  0  0  0  0  0  0  0  0  0  0  0
  138.4196  151.3905  143.9383 C   0  0  0  0  0  0  0  0  0  0  0  0
  136.7853  150.4836  142.9834 N   0  0  0  0  0  0  0  0  0  0  0  0
  136.2610  150.8697  144.2731 C   0  0  0  0  0  0  0  0  0  0  0  0
  135.8539  149.8186  141.8773 C   0  0  0  0  0  0  0  0  0  0  0  0
  135.1294  150.8095  144.6413 C   0  0  0  0  0  0  0  0  0  0  0  0
  137.5267  151.3779  144.8921 C   0  0  0  0  0  0  0  0  0  0  0  0
  1  2  1  0
  2  3  2  0
  3  4  1  0
  2  5  1  0
  5  6  2  0
  4  7  1  0
  6  8  1  0
  6  9  1  0
  9 10  1  0
  4 11  1  0
  9 11  1  0
 10 12  1  0
  8 13  1  0
 10 13  2  0
M  END
$$$$

     RDKit          3D

 13 14  0  0  0  0  0  0  0  0999 V2000
  139.0010  149.7643  140.3643 C   0  0  0  0  0  0  0  0  0  0  0  0
  138.7144  149.5449  139.1247 C   0  0  0  0  0  0  0  0  0  0  0  0
  138.1840  150.1020  141.2852 C   0  0  0  0  0  0  0  0  0  0  0  0
  137.3200  149.5871  138.6815 C   0  0  0  0  0  0  0  0  0  0  0  0
  136.4668  149.5647  139.6600 C   0  0  0  0  0  0  0  0  0  0  0  0
  138.6203  150.4924  142.6513 C   0  0  0  0  0  0  0  0  0  0  0  0
  137.7616  150.9851  143.6296 C   0  0  0  0  0  0  0  0  0  0  0  0
  136.4770  150.9768  143.2092 C   0  0  0  0  0  0  0  0  0  0  0  0
  135.5254  151.4160  144.2399 C   0  0  0  0  0  0  0  0  0  0  0  0
  136.7403  150.0044  140.9819 C   0  0  0  0  0  0  0  0  0  0  0  0
  136.1703  150.4248  142.0385 N   0  0  0  0  0  0  0  0  0  0  0  0
  135.4459  151.0262  145.3626 C   0  0  0  0  0  0  0  0  0  0  0  0
  134.8555  151.8788  146.4737 C   0  0  0  0  0  0  0  0  0  0  0  0
  1  2  2  0
  1  3  1  0
  2  4  1  0
  4  5  2  0
  3  6  1  0
  6  7  2  0
  7  8  1  0
  8  9  1  0
  3 10  2  0
  5 10  1  0
  8 11  2  0
 10 11  1  0
  9 12  1  0
 12 13  1  0
M  END
$$$$

     RDKit          3D

 13 14  0  0  0  0  0  0  0  0999 V2000
  138.9697  151.3146  142.5684 C   0  0  0  0  0  0  0  0  0  0  0  0
  138.6018  152.0883  143.2657 C   0  0  0  0  0  0  0  0  0  0  0  0
  137.4864  151.7371  144.1980 C   0  0  0  0  0  0  0  0  0  0  0  0
  139.9864  151.4011  141.4219 C   0  0  0  0  0  0  0  0  0  0  0  0
  136.7358  152.5376  145.0264 C   0  0  0  0  0  0  0  0  0  0  0  0
  137.0438  153.8716  145.0221 C   0  0  0  0  0  0  0  0  0  0  0  0
  139.6830  150.7211  140.1958 C   0  0  0  0  0  0  0  0  0  0  0  0
  138.5909  149.7770  140.3983 C   0  0  0  0  0  0  0  0  0  0  0  0
  135.9315  152.1519  145.6982 C   0  0  0  0  0  0  0  0  0  0  0  0
  137.7823  149.7754  141.6033 C   0  0  0  0  0  0  0  0  0  0  0  0
  137.9979  150.3149  142.4399 C   0  0  0  0  0  0  0  0  0  0  0  0
  136.8954  150.6414  144.4928 C   0  0  0  0  0  0  0  0  0  0  0  0
  135.8467  150.8686  145.5851 C   0  0  0  0  0  0  0  0  0  0  0  0
  1  2  1  0
  2  3  2  3
  1  4  1  0
  3  5  1  0
  5  6  1  0
  4  7  2  0
  7  8  1  0
  5  9  2  0
  8 10  2  0
  1 11  2  0
 10 11  1  0
  3 12  1  0
  9 13  1  0
 12 13  1  0
M  END
$$$$

     RDKit          3D

 13 14  0  0  0  0  0  0  0  0999 V2000
  139.2620  151.0921  142.4039 C   0  0  0  0  0  0  0  0  0  0  0  0
  138.8618  152.1315  142.9023 C   0  0  0  0  0  0  0  0  0  0  0  0
  137.9130  151.7995  143.7812 C   0  0  0  0  0  0  0  0  0  0  0  0
  138.8259  150.3979  141.6057 C   0  0  0  0  0  0  0  0  0  0  0  0
  137.6638  149.9538  141.7688 C   0  0  0  0  0  0  0  0  0  0  0  0
  137.5091  152.6033  144.9557 C   0  0  0  0  0  0  0  0  0  0  0  0
  136.8131  150.7653  143.7756 C   0  0  0  0  0  0  0  0  0  0  0  0
  135.9244  150.8037  144.8950 C   0  0  0  0  0  0  0  0  0  0  0  0
  136.9542  149.4283  140.5394 C   0  0  0  0  0  0  0  0  0  0  0  0
  135.9804  151.7966  145.6582 C   0  0  0  0  0  0  0  0  0  0  0  0
  136.7696  152.7934  145.7213 C   0  0  0  0  0  0  0  0  0  0  0  0
  134.5148  151.7570  146.6182 C   0  0  0  0  0  0  0  0  0  0  0  0
  136.7989  150.2687  142.8506 C   0  0  0  0  0  0  0  0  0  0  0  0
  1  2  1  0
  2  3  2  0
  1  4  2  0
  4  5  1  0
  3  6  1  0
  3  7  1  0
  7  8  2  0
  5  9  1  0
  8 10  1  0
  6 11  2  0
 10 11  1  0
 10 12  1  0
  5 13  2  0
  7 13  1  0
M  END
$$$$

     RDKit          3D

 13 14  0  0  0  0  0  0  0  0999 V2000
  139.2620  151.0921  142.4039 C   0  0  0  0  0  0  0  0  0  0  0  0
  138.8618  152.1315  142.9023 C   0  0  0  0  0  0  0  0  0  0  0  0
  137.7838  151.8936  143.8932 C   0  0  0  0  0  0  0  0  0  0  0  0
  137.3596  150.5423  144.0627 C   0  0  0  0  0  0  0  0  0  0  0  0
  136.3232  150.4823  145.1226 C   0  0  0  0  0  0  0  0  0  0  0  0
  139.2662  149.7547  142.8065 C   0  0  0  0  0  0  0  0  0  0  0  0
  138.1300  149.4969  143.5633 C   0  0  0  0  0  0  0  0  0  0  0  0
  140.3208  151.2825  141.2610 C   0  0  0  0  0  0  0  0  0  0  0  0
  139.9126  150.4639  140.0100 C   0  0  0  0  0  0  0  0  0  0  0  0
  135.7591  151.6218  145.4001 C   0  0  0  0  0  0  0  0  0  0  0  0
  137.1524  152.8988  144.6330 C   0  0  0  0  0  0  0  0  0  0  0  0
  136.1549  152.8139  145.3421 C   0  0  0  0  0  0  0  0  0  0  0  0
  135.4428  154.0751  145.9333 C   0  0  0  0  0  0  0  0  0  0  0  0
  1  2  1  0
  2  3  2  0
  3  4  1  0
  4  5  2  0
  1  6  1  0
  4  7  1  0
  6  7  2  0
  1  8  1  0
  8  9  1  0
  5 10  1  0
  3 11  1  0
 10 12  2  0
 11 12  1  0
 12 13  1  0
M  END
$$$$

     RDKit          3D

 13 14  0  0  0  0  0  0  0  0999 V2000
  138.9697  151.3146  142.5684 C   0  0  0  0  0  0  0  0  0  0  0  0
  138.6018  152.0883  143.2657 C   0  0  0  0  0  0  0  0  0  0  0  0
  137.4864  151.7371  144.1980 C   0  0  0  0  0  0  0  0  0  0  0  0
  139.9864  151.4011  141.4219 C   0  0  0  0  0  0  0  0  0  0  0  0
  136.7358  152.5376  145.0264 C   0  0  0  0  0  0  0  0  0  0  0  0
  137.0438  153.8716  145.0221 C   0  0  0  0  0  0  0  0  0  0  0  0
  139.6830  150.7211  140.1958 C   0  0  0  0  0  0  0  0  0  0  0  0
  138.5909  149.7770  140.3983 C   0  0  0  0  0  0  0  0  0  0  0  0
  138.0701  149.0444  139.2243 C   0  0  0  0  0  0  0  0  0  0  0  0
  135.9433  152.0982  145.6911 O   0  0  0  0  0  0  0  0  0  0  0  0
  137.8421  149.9286  141.5458 C   0  0  0  0  0  0  0  0  0  0  0  0
  138.2470  150.5178  142.5439 C   0  0  0  0  0  0  0  0  0  0  0  0
  137.3073  150.2903  143.9561 C   0  0  0  0  0  0  0  0  0  0  0  0
  1  2  1  0
  2  3  2  0
  1  4  1  0
  3  5  1  0
  5  6  1  0
  4  7  2  0
  7  8  1  0
  8  9  1  0
  5 10  2  0
  8 11  2  0
  1 12  2  0
 11 12  1  0
  3 13  1  0
 12 13  1  0
M  END
$$$$

     RDKit          3D

 13 14  0  0  0  0  0  0  0  0999 V2000
  139.5550  150.5075  140.4438 C   0  0  0  0  0  0  0  0  0  0  0  0
  139.2165  150.0149  139.3725 C   0  0  0  0  0  0  0  0  0  0  0  0
  138.8581  150.3072  141.5852 C   0  0  0  0  0  0  0  0  0  0  0  0
  139.2270  150.3459  142.8891 C   0  0  0  0  0  0  0  0  0  0  0  0
  138.5608  151.2821  143.6742 C   0  0  0  0  0  0  0  0  0  0  0  0
  137.8570  149.4552  139.3184 C   0  0  0  0  0  0  0  0  0  0  0  0
  137.4753  151.5817  143.4203 C   0  0  0  0  0  0  0  0  0  0  0  0
  137.4378  150.1450  141.2520 C   0  0  0  0  0  0  0  0  0  0  0  0
  136.9984  149.6431  140.1530 C   0  0  0  0  0  0  0  0  0  0  0  0
  136.5284  150.7935  142.3687 C   0  0  0  0  0  0  0  0  0  0  0  0
  136.5910  152.4202  144.2134 C   0  0  0  0  0  0  0  0  0  0  0  0
  135.5780  152.1121  145.0263 C   0  0  0  0  0  0  0  0  0  0  0  0
  134.9476  153.1237  145.8784 C   0  0  0  0  0  0  0  0  0  0  0  0
  1  2  2  0
  1  3  1  0
  3  4  1  0
  4  5  2  0
  2  6  1  0
  5  7  1  0
  3  8  2  0
  6  9  2  0
  8  9  1  0
  7 10  1  0
  8 10  1  0
  7 11  2  3
 11 12  1  0
 12 13  1  0
M  END
$$$$

     RDKit          3D

 13 14  0  0  0  0  0  0  0  0999 V2000
  138.7086  151.1469  142.6266 C   0  0  0  0  0  0  0  0  0  0  0  0
  138.5250  151.9368  143.5112 C   0  0  0  0  0  0  0  0  0  0  0  0
  137.3811  151.6572  144.3961 C   0  0  0  0  0  0  0  0  0  0  0  0
  139.7008  151.1089  141.6121 C   0  0  0  0  0  0  0  0  0  0  0  0
  136.7115  150.4275  144.0247 C   0  0  0  0  0  0  0  0  0  0  0  0
  139.4933  150.4714  140.3262 C   0  0  0  0  0  0  0  0  0  0  0  0
  138.3034  149.7102  140.4068 C   0  0  0  0  0  0  0  0  0  0  0  0
  137.7401  150.0401  142.1735 C   0  0  0  0  0  0  0  0  0  0  0  0
  137.0235  152.5597  145.4530 C   0  0  0  0  0  0  0  0  0  0  0  0
  137.9777  149.0926  139.0251 C   0  0  0  0  0  0  0  0  0  0  0  0
  136.8795  149.8232  142.9192 C   0  0  0  0  0  0  0  0  0  0  0  0
  137.4487  149.4726  141.3379 C   0  0  0  0  0  0  0  0  0  0  0  0
  135.7202  152.5661  145.9908 C   0  0  0  0  0  0  0  0  0  0  0  0
  1  2  1  0
  2  3  2  0
  1  4  1  0
  3  5  1  0
  4  6  2  0
  6  7  1  0
  1  8  2  0
  3  9  1  0
  7 10  1  0
  5 11  2  0
  8 11  1  0
  7 12  2  0
  8 12  1  0
  9 13  1  0
M  END
$$$$

     RDKit          3D

 13 14  0  0  0  0  0  0  0  0999 V2000
  139.2620  151.0921  142.4039 C   0  0  0  0  0  0  0  0  0  0  0  0
  138.8618  152.1315  142.9023 C   0  0  0  0  0  0  0  0  0  0  0  0
  137.9130  151.7995  143.7812 C   0  0  0  0  0  0  0  0  0  0  0  0
  138.8259  150.3979  141.6057 C   0  0  0  0  0  0  0  0  0  0  0  0
  137.6638  149.9538  141.7688 C   0  0  0  0  0  0  0  0  0  0  0  0
  137.5091  152.6033  144.9557 C   0  0  0  0  0  0  0  0  0  0  0  0
  136.8131  150.7653  143.7756 C   0  0  0  0  0  0  0  0  0  0  0  0
  135.9244  150.8037  144.8950 C   0  0  0  0  0  0  0  0  0  0  0  0
  136.9542  149.4283  140.5394 C   0  0  0  0  0  0  0  0  0  0  0  0
  135.9804  151.7966  145.6582 C   0  0  0  0  0  0  0  0  0  0  0  0
  136.7696  152.7934  145.7213 C   0  0  0  0  0  0  0  0  0  0  0  0
  134.8507  151.8959  146.7735 C   0  0  0  0  0  0  0  0  0  0  0  0
  136.7613  150.3897  142.6639 N   0  0  0  0  0  0  0  0  0  0  0  0
  1  2  1  0
  2  3  2  0
  1  4  2  0
  4  5  1  0
  3  6  1  0
  3  7  1  0
  7  8  2  0
  5  9  1  0
  8 10  1  0
  6 11  2  0
 10 11  1  0
 10 12  2  0
  5 13  2  0
  7 13  1  0
M  END
$$$$

     RDKit          3D

 13 14  0  0  0  0  0  0  0  0999 V2000
  138.7086  151.1469  142.6266 C   0  0  0  0  0  0  0  0  0  0  0  0
  138.5250  151.9368  143.5112 C   0  0  0  0  0  0  0  0  0  0  0  0
  137.3811  151.6572  144.3961 C   0  0  0  0  0  0  0  0  0  0  0  0
  139.7008  151.1089  141.6121 C   0  0  0  0  0  0  0  0  0  0  0  0
  136.7115  150.4275  144.0247 C   0  0  0  0  0  0  0  0  0  0  0  0
  139.4933  150.4714  140.3262 C   0  0  0  0  0  0  0  0  0  0  0  0
  138.3034  149.7102  140.4068 C   0  0  0  0  0  0  0  0  0  0  0  0
  137.7753  150.0657  142.1256 C   0  0  0  0  0  0  0  0  0  0  0  0
  137.1584  152.6311  145.4327 C   0  0  0  0  0  0  0  0  0  0  0  0
  140.5320  150.6248  139.3927 C   0  0  0  0  0  0  0  0  0  0  0  0
  136.9059  149.9112  142.8627 C   0  0  0  0  0  0  0  0  0  0  0  0
  138.2014  149.1763  138.9039 C   0  0  0  0  0  0  0  0  0  0  0  0
  137.5422  149.4948  141.2764 N   0  0  0  0  0  0  0  0  0  0  0  0
  1  2  1  0
  2  3  2  0
  1  4  1  0
  3  5  1  0
  4  6  2  0
  6  7  1  0
  1  8  2  0
  3  9  1  0
  6 10  1  0
  5 11  2  0
  8 11  1  0
  7 12  1  0
  7 13  2  0
  8 13  1  0
M  END
$$$$

     RDKit          3D

 13 13  0  0  0  0  0  0  0  0999 V2000
  139.5550  150.5075  140.4438 C   0  0  0  0  0  0  0  0  0  0  0  0
  139.2165  150.0149  139.3725 C   0  0  0  0  0  0  0  0  0  0  0  0
  138.8581  150.3072  141.5852 C   0  0  0  0  0  0  0  0  0  0  0  0
  139.2270  150.3459  142.8891 C   0  0  0  0  0  0  0  0  0  0  0  0
  138.5608  151.2821  143.6742 C   0  0  0  0  0  0  0  0  0  0  0  0
  137.8570  149.4552  139.3184 C   0  0  0  0  0  0  0  0  0  0  0  0
  137.4753  151.5817  143.4203 C   0  0  0  0  0  0  0  0  0  0  0  0
  137.4378  150.1450  141.2520 C   0  0  0  0  0  0  0  0  0  0  0  0
  136.4113  151.9557  144.2718 C   0  0  0  0  0  0  0  0  0  0  0  0
  137.4423  148.8890  138.0435 C   0  0  0  0  0  0  0  0  0  0  0  0
  136.6793  150.1218  140.2381 C   0  0  0  0  0  0  0  0  0  0  0  0
  135.2555  151.8288  144.2152 C   0  0  0  0  0  0  0  0  0  0  0  0
  136.8676  152.7179  145.6245 C   0  0  0  0  0  0  0  0  0  0  0  0
  1  2  2  0
  1  3  1  0
  3  4  1  0
  4  5  2  3
  2  6  1  0
  5  7  1  0
  3  8  2  0
  7  9  2  3
  6 10  1  0
  6 11  2  0
  8 11  1  0
  9 12  1  0
  9 13  1  0
M  END
$$$$

     RDKit          3D

 13 14  0  0  0  0  0  0  0  0999 V2000
  140.3019  150.2145  139.4802 Cl  0  0  0  0  0  0  0  0  0  0  0  0
  138.6758  150.1820  140.5311 C   0  0  0  0  0  0  0  0  0  0  0  0
  137.6364  149.3800  140.0902 C   0  0  0  0  0  0  0  0  0  0  0  0
  139.2345  150.7148  141.5757 C   0  0  0  0  0  0  0  0  0  0  0  0
  138.3506  151.0464  142.3754 C   0  0  0  0  0  0  0  0  0  0  0  0
  137.5082  148.8204  138.8309 C   0  0  0  0  0  0  0  0  0  0  0  0
  136.5827  149.7696  140.9317 C   0  0  0  0  0  0  0  0  0  0  0  0
  138.6187  151.7541  143.7330 C   0  0  0  0  0  0  0  0  0  0  0  0
  137.6301  151.9667  144.4855 C   0  0  0  0  0  0  0  0  0  0  0  0
  136.4136  151.4359  144.1600 C   0  0  0  0  0  0  0  0  0  0  0  0
  136.7367  150.5070  142.2503 C   0  0  0  0  0  0  0  0  0  0  0  0
  135.3078  151.6643  145.2215 C   0  0  0  0  0  0  0  0  0  0  0  0
  135.7914  150.8094  143.1165 N   0  0  0  0  0  0  0  0  0  0  0  0
  1  2  1  0
  2  3  1  0
  2  4  2  0
  4  5  1  0
  3  6  1  0
  3  7  2  0
  5  8  1  0
  8  9  2  0
  9 10  1  0
  5 11  2  0
  7 11  1  0
 10 12  1  0
 10 13  2  0
 11 13  1  0
M  END
$$$$

     RDKit          3D

 13 13  0  0  0  0  0  0  0  0999 V2000
  138.9697  151.3146  142.5684 C   0  0  0  0  0  0  0  0  0  0  0  0
  138.6018  152.0883  143.2657 C   0  0  0  0  0  0  0  0  0  0  0  0
  137.4864  151.7371  144.1980 C   0  0  0  0  0  0  0  0  0  0  0  0
  139.9864  151.4011  141.4219 C   0  0  0  0  0  0  0  0  0  0  0  0
  139.7068  150.7354  140.2267 C   0  0  0  0  0  0  0  0  0  0  0  0
  138.4808  149.8562  142.3647 C   0  0  0  0  0  0  0  0  0  0  0  0
  137.2037  150.4273  144.3413 C   0  0  0  0  0  0  0  0  0  0  0  0
  138.7871  149.7780  140.0794 C   0  0  0  0  0  0  0  0  0  0  0  0
  136.6054  152.5478  145.0308 C   0  0  0  0  0  0  0  0  0  0  0  0
  137.3554  149.4255  141.7854 C   0  0  0  0  0  0  0  0  0  0  0  0
  136.9228  153.8542  145.2248 C   0  0  0  0  0  0  0  0  0  0  0  0
  135.8124  152.0080  145.4845 O   0  0  0  0  0  0  0  0  0  0  0  0
  137.7178  149.2124  140.5929 C   0  0  0  0  0  0  0  0  0  0  0  0
  1  2  1  0
  2  3  2  3
  1  4  1  0
  4  5  2  0
  1  6  2  0
  3  7  1  0
  5  8  1  0
  3  9  1  0
  6 10  1  0
  9 11  1  0
  9 12  2  0
  8 13  2  0
 10 13  1  0
M  END
$$$$

     RDKit          3D

 13 14  0  0  0  0  0  0  0  0999 V2000
  139.0010  149.7643  140.3643 C   0  0  0  0  0  0  0  0  0  0  0  0
  138.7144  149.5449  139.1247 C   0  0  0  0  0  0  0  0  0  0  0  0
  138.1840  150.1020  141.2852 C   0  0  0  0  0  0  0  0  0  0  0  0
  137.3200  149.5871  138.6815 C   0  0  0  0  0  0  0  0  0  0  0  0
  136.9839  149.1440  137.4603 O   0  0  0  0  0  0  0  0  0  0  0  0
  136.5120  149.8334  139.7504 C   0  0  0  0  0  0  0  0  0  0  0  0
  136.8275  150.1526  141.0382 C   0  0  0  0  0  0  0  0  0  0  0  0
  138.5748  150.4812  142.6527 C   0  0  0  0  0  0  0  0  0  0  0  0
  135.9105  150.4474  142.0009 C   0  0  0  0  0  0  0  0  0  0  0  0
  137.9841  150.8734  143.4070 C   0  0  0  0  0  0  0  0  0  0  0  0
  134.5601  150.6186  141.9026 C   0  0  0  0  0  0  0  0  0  0  0  0
  138.4227  151.2272  144.8853 C   0  0  0  0  0  0  0  0  0  0  0  0
  136.5062  150.8814  143.3228 C   0  0  0  0  0  0  0  0  0  0  0  0
  1  2  2  0
  1  3  1  0
  2  4  1  0
  4  5  2  0
  4  6  1  0
  3  7  1  0
  6  7  1  0
  3  8  2  0
  7  9  2  0
  8 10  1  0
  9 11  1  0
 10 12  1  0
  9 13  1  0
 10 13  2  0
M  END
$$$$

     RDKit          3D

 13 14  0  0  0  0  0  0  0  0999 V2000
  139.0010  149.7643  140.3643 C   0  0  0  0  0  0  0  0  0  0  0  0
  138.7144  149.5449  139.1247 C   0  0  0  0  0  0  0  0  0  0  0  0
  138.1840  150.1020  141.2852 C   0  0  0  0  0  0  0  0  0  0  0  0
  137.3200  149.5871  138.6815 C   0  0  0  0  0  0  0  0  0  0  0  0
  136.9839  149.1440  137.4603 O   0  0  0  0  0  0  0  0  0  0  0  0
  136.5120  149.8334  139.7504 C   0  0  0  0  0  0  0  0  0  0  0  0
  136.8275  150.1526  141.0382 C   0  0  0  0  0  0  0  0  0  0  0  0
  138.5748  150.4812  142.6527 C   0  0  0  0  0  0  0  0  0  0  0  0
  135.9105  150.4474  142.0009 C   0  0  0  0  0  0  0  0  0  0  0  0
  139.9690  150.5092  143.0007 C   0  0  0  0  0  0  0  0  0  0  0  0
  137.7418  150.8588  143.5894 C   0  0  0  0  0  0  0  0  0  0  0  0
  134.5434  150.6271  141.7787 C   0  0  0  0  0  0  0  0  0  0  0  0
  136.3123  150.8877  143.4068 C   0  0  0  0  0  0  0  0  0  0  0  0
  1  2  2  0
  1  3  1  0
  2  4  1  0
  4  5  2  0
  4  6  1  0
  3  7  1  0
  6  7  1  0
  3  8  2  0
  7  9  2  0
  8 10  1  0
  8 11  1  0
  9 12  1  0
  9 13  1  0
 11 13  2  0
M  END
$$$$

     RDKit          3D

 13 13  0  0  0  0  0  0  0  0999 V2000
  138.9697  151.3146  142.5684 C   0  0  0  0  0  0  0  0  0  0  0  0
  138.6018  152.0883  143.2657 C   0  0  0  0  0  0  0  0  0  0  0  0
  137.4864  151.7371  144.1980 C   0  0  0  0  0  0  0  0  0  0  0  0
  139.9864  151.4011  141.4219 C   0  0  0  0  0  0  0  0  0  0  0  0
  139.7068  150.7354  140.2267 C   0  0  0  0  0  0  0  0  0  0  0  0
  138.4808  149.8562  142.3647 C   0  0  0  0  0  0  0  0  0  0  0  0
  137.2037  150.4273  144.3413 C   0  0  0  0  0  0  0  0  0  0  0  0
  138.7871  149.7780  140.0794 C   0  0  0  0  0  0  0  0  0  0  0  0
  136.6054  152.5478  145.0308 C   0  0  0  0  0  0  0  0  0  0  0  0
  137.3554  149.4255  141.7854 C   0  0  0  0  0  0  0  0  0  0  0  0
  140.8475  151.1886  139.2976 C   0  0  0  0  0  0  0  0  0  0  0  0
  136.9194  153.8522  145.2235 C   0  0  0  0  0  0  0  0  0  0  0  0
  137.6738  149.3079  140.5977 C   0  0  0  0  0  0  0  0  0  0  0  0
  1  2  1  0
  2  3  2  3
  1  4  1  0
  4  5  2  0
  1  6  2  0
  3  7  1  0
  5  8  1  0
  3  9  1  0
  6 10  1  0
  5 11  1  0
  9 12  2  0
  8 13  2  0
 10 13  1  0
M  END
$$$$

     RDKit          3D

 13 14  0  0  0  0  0  0  0  0999 V2000
  140.3019  150.2145  139.4802 Cl  0  0  0  0  0  0  0  0  0  0  0  0
  138.6758  150.1820  140.5311 C   0  0  0  0  0  0  0  0  0  0  0  0
  137.6364  149.3800  140.0902 C   0  0  0  0  0  0  0  0  0  0  0  0
  138.8645  150.7144  141.4528 C   0  0  0  0  0  0  0  0  0  0  0  0
  137.8186  150.7977  142.5169 C   0  0  0  0  0  0  0  0  0  0  0  0
  138.0486  151.4509  143.8211 C   0  0  0  0  0  0  0  0  0  0  0  0
  136.6997  150.0744  142.0183 C   0  0  0  0  0  0  0  0  0  0  0  0
  136.9142  151.6355  144.5807 C   0  0  0  0  0  0  0  0  0  0  0  0
  135.5228  150.3517  142.8943 C   0  0  0  0  0  0  0  0  0  0  0  0
  135.6487  151.0316  144.2016 C   0  0  0  0  0  0  0  0  0  0  0  0
  137.0289  152.3267  145.7825 C   0  0  0  0  0  0  0  0  0  0  0  0
  137.6587  148.7229  138.8476 C   0  0  0  0  0  0  0  0  0  0  0  0
  136.4699  149.5117  140.8408 C   0  0  0  0  0  0  0  0  0  0  0  0
  1  2  1  0
  2  3  2  0
  2  4  1  0
  4  5  2  0
  5  6  1  0
  5  7  1  0
  6  8  1  0
  7  9  1  0
  8 10  1  0
  9 10  1  0
  8 11  2  0
  3 12  1  0
  3 13  1  0
  7 13  2  0
M  END
$$$$

     RDKit          3D

 13 14  0  0  0  0  0  0  0  0999 V2000
  138.7086  151.1469  142.6266 C   0  0  0  0  0  0  0  0  0  0  0  0
  138.5250  151.9368  143.5112 C   0  0  0  0  0  0  0  0  0  0  0  0
  137.3811  151.6572  144.3961 C   0  0  0  0  0  0  0  0  0  0  0  0
  139.7008  151.1089  141.6121 C   0  0  0  0  0  0  0  0  0  0  0  0
  136.7115  150.4275  144.0247 C   0  0  0  0  0  0  0  0  0  0  0  0
  137.9015  150.0212  142.3179 C   0  0  0  0  0  0  0  0  0  0  0  0
  138.2227  149.2897  141.1482 C   0  0  0  0  0  0  0  0  0  0  0  0
  136.8382  152.3621  145.4464 C   0  0  0  0  0  0  0  0  0  0  0  0
  139.7070  150.3005  140.5078 C   0  0  0  0  0  0  0  0  0  0  0  0
  136.8826  149.7394  143.1910 N   0  0  0  0  0  0  0  0  0  0  0  0
  138.9672  149.3593  140.2967 C   0  0  0  0  0  0  0  0  0  0  0  0
  135.5182  152.2670  145.8814 C   0  0  0  0  0  0  0  0  0  0  0  0
  141.0306  150.6975  139.4360 Cl  0  0  0  0  0  0  0  0  0  0  0  0
  1  2  1  0
  2  3  2  0
  1  4  1  0
  3  5  1  0
  1  6  2  0
  6  7  1  0
  3  8  1  0
  4  9  2  0
  5 10  2  0
  6 10  1  0
  7 11  2  0
  9 11  1  0
  8 12  1  0
  9 13  1  0
M  END
$$$$

     RDKit          3D

 13 14  0  0  0  0  0  0  0  0999 V2000
  138.9697  151.3146  142.5684 C   0  0  0  0  0  0  0  0  0  0  0  0
  138.6018  152.0883  143.2657 C   0  0  0  0  0  0  0  0  0  0  0  0
  137.5210  151.7905  144.2146 C   0  0  0  0  0  0  0  0  0  0  0  0
  139.9450  151.4362  141.4348 C   0  0  0  0  0  0  0  0  0  0  0  0
  137.4509  150.5150  144.7895 C   0  0  0  0  0  0  0  0  0  0  0  0
  139.6483  150.6881  140.3006 C   0  0  0  0  0  0  0  0  0  0  0  0
  138.5290  149.9149  140.3372 C   0  0  0  0  0  0  0  0  0  0  0  0
  137.6578  149.7051  141.5159 C   0  0  0  0  0  0  0  0  0  0  0  0
  138.0468  150.4771  142.6111 C   0  0  0  0  0  0  0  0  0  0  0  0
  136.4449  152.3970  144.4837 C   0  0  0  0  0  0  0  0  0  0  0  0
  137.5054  150.1164  143.7826 N   0  0  0  0  0  0  0  0  0  0  0  0
  140.7172  150.6539  139.1068 Cl  0  0  0  0  0  0  0  0  0  0  0  0
  136.0582  153.0867  145.3963 O   0  0  0  0  0  0  0  0  0  0  0  0
  1  2  2  0
  2  3  1  0
  1  4  1  0
  3  5  2  0
  4  6  2  0
  6  7  1  0
  7  8  2  0
  1  9  1  0
  8  9  1  0
  3 10  1  0
  5 11  1  0
  9 11  2  0
  6 12  1  0
 10 13  2  0
M  END
$$$$

     RDKit          3D

 13 13  0  0  0  0  0  0  0  0999 V2000
  138.7086  151.1469  142.6266 C   0  0  0  0  0  0  0  0  0  0  0  0
  138.5250  151.9368  143.5112 C   0  0  0  0  0  0  0  0  0  0  0  0
  137.3811  151.6572  144.3961 C   0  0  0  0  0  0  0  0  0  0  0  0
  139.7008  151.1089  141.6121 C   0  0  0  0  0  0  0  0  0  0  0  0
  136.7115  150.4275  144.0247 C   0  0  0  0  0  0  0  0  0  0  0  0
  139.4933  150.4714  140.3262 C   0  0  0  0  0  0  0  0  0  0  0  0
  138.3034  149.7102  140.4068 C   0  0  0  0  0  0  0  0  0  0  0  0
  137.7753  150.0657  142.1256 C   0  0  0  0  0  0  0  0  0  0  0  0
  137.1584  152.6311  145.4327 C   0  0  0  0  0  0  0  0  0  0  0  0
  140.5320  150.6248  139.3927 C   0  0  0  0  0  0  0  0  0  0  0  0
  136.9059  149.9112  142.8627 C   0  0  0  0  0  0  0  0  0  0  0  0
  137.7036  149.5295  141.0823 C   0  0  0  0  0  0  0  0  0  0  0  0
  137.4381  148.9775  140.3351 N   0  0  0  0  0  0  0  0  0  0  0  0
  1  2  1  0
  2  3  2  0
  1  4  1  0
  3  5  1  0
  4  6  2  3
  6  7  1  0
  1  8  2  0
  3  9  1  0
  6 10  1  0
  5 11  2  0
  8 11  1  0
  8 12  1  0
  7 13  3  0
M  END
$$$$

     RDKit          3D

 13 13  0  0  0  0  0  0  0  0999 V2000
  138.7086  151.1469  142.6266 C   0  0  0  0  0  0  0  0  0  0  0  0
  138.5250  151.9368  143.5112 C   0  0  0  0  0  0  0  0  0  0  0  0
  137.3811  151.6572  144.3961 C   0  0  0  0  0  0  0  0  0  0  0  0
  139.7008  151.1089  141.6121 C   0  0  0  0  0  0  0  0  0  0  0  0
  136.7115  150.4275  144.0247 C   0  0  0  0  0  0  0  0  0  0  0  0
  139.4933  150.4714  140.3262 C   0  0  0  0  0  0  0  0  0  0  0  0
  138.3034  149.7102  140.4068 C   0  0  0  0  0  0  0  0  0  0  0  0
  137.7753  150.0657  142.1256 C   0  0  0  0  0  0  0  0  0  0  0  0
  137.1584  152.6311  145.4327 C   0  0  0  0  0  0  0  0  0  0  0  0
  140.5320  150.6248  139.3927 C   0  0  0  0  0  0  0  0  0  0  0  0
  136.9059  149.9112  142.8627 C   0  0  0  0  0  0  0  0  0  0  0  0
  137.7036  149.5295  141.0823 C   0  0  0  0  0  0  0  0  0  0  0  0
  137.4381  148.9775  140.3351 C   0  0  0  0  0  0  0  0  0  0  0  0
  1  2  1  0
  2  3  2  0
  1  4  1  0
  3  5  1  0
  4  6  2  3
  6  7  1  0
  1  8  2  0
  3  9  1  0
  6 10  1  0
  5 11  2  0
  8 11  1  0
  8 12  1  0
  7 13  3  0
M  END
$$$$

     RDKit          3D

 13 14  0  0  0  0  0  0  0  0999 V2000
  140.3019  150.2145  139.4802 Cl  0  0  0  0  0  0  0  0  0  0  0  0
  138.6758  150.1820  140.5311 C   0  0  0  0  0  0  0  0  0  0  0  0
  137.6364  149.3800  140.0902 C   0  0  0  0  0  0  0  0  0  0  0  0
  138.8645  150.7144  141.4528 C   0  0  0  0  0  0  0  0  0  0  0  0
  136.5623  149.5846  140.7692 C   0  0  0  0  0  0  0  0  0  0  0  0
  136.4105  150.3672  141.9090 C   0  0  0  0  0  0  0  0  0  0  0  0
  135.2467  150.5950  142.7376 C   0  0  0  0  0  0  0  0  0  0  0  0
  135.5637  151.2797  144.0133 C   0  0  0  0  0  0  0  0  0  0  0  0
  137.7143  150.9887  142.3935 C   0  0  0  0  0  0  0  0  0  0  0  0
  134.8437  150.9635  145.2296 C   0  0  0  0  0  0  0  0  0  0  0  0
  135.0764  151.8214  146.3949 C   0  0  0  0  0  0  0  0  0  0  0  0
  135.8947  152.9388  146.0583 C   0  0  0  0  0  0  0  0  0  0  0  0
  136.4998  152.7714  144.8232 C   0  0  0  0  0  0  0  0  0  0  0  0
  1  2  1  0
  2  3  2  0
  2  4  1  0
  3  5  1  0
  5  6  2  0
  6  7  1  0
  7  8  1  0
  4  9  2  0
  6  9  1  0
  8 10  2  0
 10 11  1  0
 11 12  1  0
  8 13  1  0
 12 13  1  0
M  END
$$$$

     RDKit          3D

 13 14  0  0  0  0  0  0  0  0999 V2000
  138.9697  151.3146  142.5684 C   0  0  0  0  0  0  0  0  0  0  0  0
  138.6018  152.0883  143.2657 C   0  0  0  0  0  0  0  0  0  0  0  0
  139.7627  151.4691  141.3553 C   0  0  0  0  0  0  0  0  0  0  0  0
  137.5394  151.8374  144.3779 C   0  0  0  0  0  0  0  0  0  0  0  0
  137.4014  150.5805  144.6885 C   0  0  0  0  0  0  0  0  0  0  0  0
  139.6225  150.4855  140.3438 C   0  0  0  0  0  0  0  0  0  0  0  0
  138.7453  149.4536  140.7011 C   0  0  0  0  0  0  0  0  0  0  0  0
  137.7953  149.6232  141.6587 C   0  0  0  0  0  0  0  0  0  0  0  0
  138.1242  150.4597  142.7560 C   0  0  0  0  0  0  0  0  0  0  0  0
  136.8795  150.2089  146.0396 C   0  0  0  0  0  0  0  0  0  0  0  0
  136.8757  152.8324  144.4564 C   0  0  0  0  0  0  0  0  0  0  0  0
  137.5646  149.7518  143.7908 N   0  0  0  0  0  0  0  0  0  0  0  0
  140.6418  150.5420  139.1602 C   0  0  0  0  0  0  0  0  0  0  0  0
  1  2  1  0
  1  3  1  0
  2  4  1  0
  4  5  2  0
  3  6  2  0
  6  7  1  0
  7  8  2  0
  1  9  2  0
  8  9  1  0
  5 10  1  0
  4 11  1  0
  5 12  1  0
  9 12  1  0
  6 13  1  0
M  END
$$$$

     RDKit          3D

 13 14  0  0  0  0  0  0  0  0999 V2000
  139.3428  149.9936  140.5898 C   0  0  0  0  0  0  0  0  0  0  0  0
  138.9752  149.9369  139.3605 C   0  0  0  0  0  0  0  0  0  0  0  0
  138.5862  150.0774  141.6376 C   0  0  0  0  0  0  0  0  0  0  0  0
  137.6061  149.8652  139.0267 C   0  0  0  0  0  0  0  0  0  0  0  0
  136.7960  149.6544  140.0716 C   0  0  0  0  0  0  0  0  0  0  0  0
  139.0847  150.3093  143.0275 C   0  0  0  0  0  0  0  0  0  0  0  0
  138.1846  150.8565  144.0192 C   0  0  0  0  0  0  0  0  0  0  0  0
  135.2933  149.6678  139.8622 C   0  0  0  0  0  0  0  0  0  0  0  0
  137.0852  151.2672  143.6119 C   0  0  0  0  0  0  0  0  0  0  0  0
  136.5558  151.0264  142.3125 C   0  0  0  0  0  0  0  0  0  0  0  0
  137.2092  150.2316  141.4332 C   0  0  0  0  0  0  0  0  0  0  0  0
  136.0823  152.1938  144.7334 C   0  0  0  0  0  0  0  0  0  0  0  0
  136.4609  153.4243  144.9865 C   0  0  0  0  0  0  0  0  0  0  0  0
  1  2  2  0
  1  3  1  0
  2  4  1  0
  4  5  2  0
  3  6  1  0
  6  7  2  0
  5  8  1  0
  7  9  1  0
  9 10  2  0
  3 11  2  0
  5 11  1  0
 10 11  1  0
  9 12  1  0
 12 13  2  0
M  END
$$$$

     RDKit          3D

 13 13  0  0  0  0  0  0  0  0999 V2000
  138.9697  151.3146  142.5684 C   0  0  0  0  0  0  0  0  0  0  0  0
  138.6018  152.0883  143.2657 C   0  0  0  0  0  0  0  0  0  0  0  0
  139.7627  151.4691  141.3553 C   0  0  0  0  0  0  0  0  0  0  0  0
  137.7629  151.7021  144.3622 C   0  0  0  0  0  0  0  0  0  0  0  0
  136.8760  152.4884  145.1644 C   0  0  0  0  0  0  0  0  0  0  0  0
  137.0828  153.8003  145.1271 C   0  0  0  0  0  0  0  0  0  0  0  0
  135.7474  152.0603  145.7143 C   0  0  0  0  0  0  0  0  0  0  0  0
  139.5959  150.5273  140.2657 C   0  0  0  0  0  0  0  0  0  0  0  0
  138.6208  149.5233  140.6187 C   0  0  0  0  0  0  0  0  0  0  0  0
  138.0520  148.8017  139.4487 C   0  0  0  0  0  0  0  0  0  0  0  0
  134.7210  152.6762  145.9039 C   0  0  0  0  0  0  0  0  0  0  0  0
  138.0186  149.6598  141.8925 C   0  0  0  0  0  0  0  0  0  0  0  0
  138.4294  150.3563  142.7471 C   0  0  0  0  0  0  0  0  0  0  0  0
  1  2  1  0
  1  3  1  0
  2  4  2  3
  4  5  1  0
  5  6  1  0
  5  7  2  3
  3  8  2  0
  8  9  1  0
  9 10  1  0
  7 11  1  0
  9 12  2  0
  1 13  2  0
 12 13  1  0
M  END
$$$$

     RDKit          3D

 13 14  0  0  0  0  0  0  0  0999 V2000
  140.3019  150.2145  139.4802 Cl  0  0  0  0  0  0  0  0  0  0  0  0
  138.6758  150.1820  140.5311 C   0  0  0  0  0  0  0  0  0  0  0  0
  137.6364  149.3800  140.0902 C   0  0  0  0  0  0  0  0  0  0  0  0
  139.2345  150.7148  141.5757 C   0  0  0  0  0  0  0  0  0  0  0  0
  138.3506  151.0464  142.3754 C   0  0  0  0  0  0  0  0  0  0  0  0
  137.5082  148.8204  138.8309 C   0  0  0  0  0  0  0  0  0  0  0  0
  136.5827  149.7696  140.9317 C   0  0  0  0  0  0  0  0  0  0  0  0
  138.6187  151.7541  143.7330 C   0  0  0  0  0  0  0  0  0  0  0  0
  137.6301  151.9667  144.4855 C   0  0  0  0  0  0  0  0  0  0  0  0
  136.4136  151.4359  144.1600 C   0  0  0  0  0  0  0  0  0  0  0  0
  136.7367  150.5070  142.2503 C   0  0  0  0  0  0  0  0  0  0  0  0
  135.9549  150.8092  143.0594 C   0  0  0  0  0  0  0  0  0  0  0  0
  135.3360  151.9009  145.2691 C   0  0  0  0  0  0  0  0  0  0  0  0
  1  2  1  0
  2  3  1  0
  2  4  2  0
  4  5  1  0
  3  6  1  0
  3  7  2  0
  5  8  1  0
  8  9  2  0
  9 10  1  0
  5 11  2  0
  7 11  1  0
 10 12  2  0
 11 12  1  0
 10 13  1  0
M  END
$$$$

     RDKit          3D

 14 15  0  0  0  0  0  0  0  0999 V2000
  138.7086  151.1469  142.6266 C   0  0  0  0  0  0  0  0  0  0  0  0
  138.5250  151.9368  143.5112 C   0  0  0  0  0  0  0  0  0  0  0  0
  137.3811  151.6572  144.3961 C   0  0  0  0  0  0  0  0  0  0  0  0
  139.7008  151.1089  141.6121 C   0  0  0  0  0  0  0  0  0  0  0  0
  139.6260  150.4243  140.3624 C   0  0  0  0  0  0  0  0  0  0  0  0
  138.4083  149.6133  140.3617 C   0  0  0  0  0  0  0  0  0  0  0  0
  137.5986  150.0970  142.5687 C   0  0  0  0  0  0  0  0  0  0  0  0
  136.5953  150.6846  144.0292 C   0  0  0  0  0  0  0  0  0  0  0  0
  140.4825  150.3888  139.2680 C   0  0  0  0  0  0  0  0  0  0  0  0
  137.0495  152.4011  145.6361 C   0  0  0  0  0  0  0  0  0  0  0  0
  137.3501  149.3579  141.4854 C   0  0  0  0  0  0  0  0  0  0  0  0
  135.8400  152.9455  145.6153 C   0  0  0  0  0  0  0  0  0  0  0  0
  138.0978  148.9747  139.1708 C   0  0  0  0  0  0  0  0  0  0  0  0
  137.0562  148.1176  139.0875 C   0  0  0  0  0  0  0  0  0  0  0  0
  1  2  1  0
  2  3  2  0
  1  4  1  0
  4  5  2  0
  5  6  1  0
  1  7  2  0
  3  8  1  0
  7  8  1  0
  5  9  1  0
  3 10  1  0
  6 11  1  0
  7 11  1  0
 10 12  1  0
  6 13  2  3
 13 14  1  0
M  END
$$$$

     RDKit          3D

 14 15  0  0  0  0  0  0  0  0999 V2000
  139.3428  149.9936  140.5898 C   0  0  0  0  0  0  0  0  0  0  0  0
  138.9752  149.9369  139.3605 C   0  0  0  0  0  0  0  0  0  0  0  0
  138.5862  150.0774  141.6376 C   0  0  0  0  0  0  0  0  0  0  0  0
  137.2156  149.9043  141.8335 C   0  0  0  0  0  0  0  0  0  0  0  0
  136.5021  149.8247  140.5813 C   0  0  0  0  0  0  0  0  0  0  0  0
  139.1845  150.3562  143.1502 C   0  0  0  0  0  0  0  0  0  0  0  0
  138.3557  151.1252  143.9047 C   0  0  0  0  0  0  0  0  0  0  0  0
  136.5232  150.1791  143.0233 C   0  0  0  0  0  0  0  0  0  0  0  0
  137.0670  150.7700  144.0139 C   0  0  0  0  0  0  0  0  0  0  0  0
  136.3026  151.2910  145.1627 C   0  0  0  0  0  0  0  0  0  0  0  0
  135.2116  149.6641  140.4236 C   0  0  0  0  0  0  0  0  0  0  0  0
  139.7417  149.9145  138.2109 C   0  0  0  0  0  0  0  0  0  0  0  0
  136.6499  151.4865  146.3988 O   0  0  0  0  0  0  0  0  0  0  0  0
  137.4184  149.7292  139.2659 C   0  0  0  0  0  0  0  0  0  0  0  0
  1  2  2  0
  1  3  1  0
  3  4  1  0
  4  5  2  0
  3  6  1  0
  6  7  2  0
  4  8  1  0
  7  9  1  0
  8  9  2  0
  9 10  1  0
  5 11  1  0
  2 12  1  0
 10 13  2  0
  2 14  1  0
  5 14  1  0
M  END
$$$$

     RDKit          3D

 14 15  0  0  0  0  0  0  0  0999 V2000
  138.9697  151.3146  142.5684 C   0  0  0  0  0  0  0  0  0  0  0  0
  138.6018  152.0883  143.2657 C   0  0  0  0  0  0  0  0  0  0  0  0
  137.4864  151.7371  144.1980 C   0  0  0  0  0  0  0  0  0  0  0  0
  139.9864  151.4011  141.4219 C   0  0  0  0  0  0  0  0  0  0  0  0
  139.7068  150.7354  140.2267 C   0  0  0  0  0  0  0  0  0  0  0  0
  138.4808  149.8562  142.3647 C   0  0  0  0  0  0  0  0  0  0  0  0
  137.2037  150.4273  144.3413 C   0  0  0  0  0  0  0  0  0  0  0  0
  138.7871  149.7780  140.0794 C   0  0  0  0  0  0  0  0  0  0  0  0
  136.6054  152.5478  145.0308 C   0  0  0  0  0  0  0  0  0  0  0  0
  137.3554  149.4255  141.7854 C   0  0  0  0  0  0  0  0  0  0  0  0
  137.7124  149.2261  140.6063 C   0  0  0  0  0  0  0  0  0  0  0  0
  136.9057  153.8456  145.1856 C   0  0  0  0  0  0  0  0  0  0  0  0
  138.0671  149.4679  143.8179 N   0  0  0  0  0  0  0  0  0  0  0  0
  135.3782  152.0595  145.5645 C   0  0  0  0  0  0  0  0  0  0  0  0
  1  2  1  0
  2  3  2  0
  1  4  1  0
  4  5  2  0
  1  6  2  0
  3  7  1  0
  5  8  1  0
  3  9  1  0
  6 10  1  0
  8 11  2  0
 10 11  1  0
  9 12  2  0
  6 13  1  0
  7 13  1  0
  9 14  1  0
M  END
$$$$

     RDKit          3D

 14 15  0  0  0  0  0  0  0  0999 V2000
  139.5550  150.5075  140.4438 C   0  0  0  0  0  0  0  0  0  0  0  0
  139.2165  150.0149  139.3725 C   0  0  0  0  0  0  0  0  0  0  0  0
  138.8581  150.3072  141.5852 C   0  0  0  0  0  0  0  0  0  0  0  0
  139.2270  150.3459  142.8891 C   0  0  0  0  0  0  0  0  0  0  0  0
  138.5608  151.2821  143.6742 C   0  0  0  0  0  0  0  0  0  0  0  0
  137.8570  149.4552  139.3184 C   0  0  0  0  0  0  0  0  0  0  0  0
  137.4753  151.5817  143.4203 C   0  0  0  0  0  0  0  0  0  0  0  0
  137.3786  148.8877  138.1379 C   0  0  0  0  0  0  0  0  0  0  0  0
  136.7351  152.5036  144.4173 C   0  0  0  0  0  0  0  0  0  0  0  0
  136.9154  151.0404  142.2130 C   0  0  0  0  0  0  0  0  0  0  0  0
  137.4651  150.3600  141.4529 C   0  0  0  0  0  0  0  0  0  0  0  0
  135.5388  152.1501  145.0149 C   0  0  0  0  0  0  0  0  0  0  0  0
  137.0179  149.7718  140.3857 C   0  0  0  0  0  0  0  0  0  0  0  0
  135.2774  151.0051  145.4114 C   0  0  0  0  0  0  0  0  0  0  0  0
  1  2  2  0
  1  3  1  0
  3  4  1  0
  4  5  2  0
  2  6  1  0
  5  7  1  0
  6  8  1  0
  7  9  1  0
  7 10  2  0
  3 11  2  0
 10 11  1  0
  9 12  1  0
  6 13  2  0
 11 13  1  0
 12 14  2  0
M  END
$$$$

     RDKit          3D

 14 15  0  0  0  0  0  0  0  0999 V2000
  139.5550  150.5075  140.4438 C   0  0  0  0  0  0  0  0  0  0  0  0
  139.2165  150.0149  139.3725 C   0  0  0  0  0  0  0  0  0  0  0  0
  138.8581  150.3072  141.5852 C   0  0  0  0  0  0  0  0  0  0  0  0
  139.2270  150.3459  142.8891 C   0  0  0  0  0  0  0  0  0  0  0  0
  138.5608  151.2821  143.6742 C   0  0  0  0  0  0  0  0  0  0  0  0
  137.8570  149.4552  139.3184 C   0  0  0  0  0  0  0  0  0  0  0  0
  137.4753  151.5817  143.4203 C   0  0  0  0  0  0  0  0  0  0  0  0
  137.3786  148.8877  138.1379 C   0  0  0  0  0  0  0  0  0  0  0  0
  136.7351  152.5036  144.4173 C   0  0  0  0  0  0  0  0  0  0  0  0
  136.9154  151.0404  142.2130 C   0  0  0  0  0  0  0  0  0  0  0  0
  137.4527  150.3400  141.4496 C   0  0  0  0  0  0  0  0  0  0  0  0
  135.5391  152.1488  145.0120 C   0  0  0  0  0  0  0  0  0  0  0  0
  137.0239  149.7608  140.3886 N   0  0  0  0  0  0  0  0  0  0  0  0
  135.2837  151.0143  145.4151 C   0  0  0  0  0  0  0  0  0  0  0  0
  1  2  2  0
  1  3  1  0
  3  4  1  0
  4  5  2  0
  2  6  1  0
  5  7  1  0
  6  8  1  0
  7  9  1  0
  7 10  2  0
  3 11  2  0
 10 11  1  0
  9 12  1  0
  6 13  2  0
 11 13  1  0
 12 14  2  0
M  END
$$$$

     RDKit          3D

 14 15  0  0  0  0  0  0  0  0999 V2000
  139.5550  150.5075  140.4438 C   0  0  0  0  0  0  0  0  0  0  0  0
  139.2165  150.0149  139.3725 C   0  0  0  0  0  0  0  0  0  0  0  0
  138.8581  150.3072  141.5852 C   0  0  0  0  0  0  0  0  0  0  0  0
  139.2270  150.3459  142.8891 C   0  0  0  0  0  0  0  0  0  0  0  0
  138.5608  151.2821  143.6742 C   0  0  0  0  0  0  0  0  0  0  0  0
  137.8570  149.4552  139.3184 C   0  0  0  0  0  0  0  0  0  0  0  0
  137.4753  151.5817  143.4203 C   0  0  0  0  0  0  0  0  0  0  0  0
  137.3786  148.8877  138.1379 C   0  0  0  0  0  0  0  0  0  0  0  0
  136.7351  152.5036  144.4173 C   0  0  0  0  0  0  0  0  0  0  0  0
  136.9154  151.0404  142.2130 C   0  0  0  0  0  0  0  0  0  0  0  0
  137.4651  150.3600  141.4529 C   0  0  0  0  0  0  0  0  0  0  0  0
  135.5388  152.1501  145.0149 C   0  0  0  0  0  0  0  0  0  0  0  0
  136.6735  149.6799  140.4891 C   0  0  0  0  0  0  0  0  0  0  0  0
  134.8952  153.0950  145.9160 C   0  0  0  0  0  0  0  0  0  0  0  0
  1  2  2  0
  1  3  1  0
  3  4  1  0
  4  5  2  0
  2  6  1  0
  5  7  1  0
  6  8  1  0
  7  9  1  0
  7 10  2  0
  3 11  2  0
 10 11  1  0
  9 12  1  0
  6 13  2  0
 11 13  1  0
 12 14  1  0
M  END
$$$$

     RDKit          3D

 14 15  0  0  0  0  0  0  0  0999 V2000
  138.9697  151.3146  142.5684 C   0  0  0  0  0  0  0  0  0  0  0  0
  138.6018  152.0883  143.2657 C   0  0  0  0  0  0  0  0  0  0  0  0
  137.6687  151.8115  144.0583 C   0  0  0  0  0  0  0  0  0  0  0  0
  139.9926  151.3705  141.4268 C   0  0  0  0  0  0  0  0  0  0  0  0
  137.5512  150.6294  144.9277 C   0  0  0  0  0  0  0  0  0  0  0  0
  139.6588  150.7358  140.2572 C   0  0  0  0  0  0  0  0  0  0  0  0
  138.5025  150.0408  140.2323 C   0  0  0  0  0  0  0  0  0  0  0  0
  137.6103  149.8214  141.4294 C   0  0  0  0  0  0  0  0  0  0  0  0
  140.5939  150.7056  139.1134 C   0  0  0  0  0  0  0  0  0  0  0  0
  138.0411  150.2096  142.2971 C   0  0  0  0  0  0  0  0  0  0  0  0
  137.1613  150.3540  146.1222 C   0  0  0  0  0  0  0  0  0  0  0  0
  138.0185  149.5546  139.0032 C   0  0  0  0  0  0  0  0  0  0  0  0
  137.3835  148.6584  138.6456 C   0  0  0  0  0  0  0  0  0  0  0  0
  137.5948  149.5753  143.7385 N   0  0  0  0  0  0  0  0  0  0  0  0
  1  2  2  0
  2  3  1  0
  1  4  1  0
  3  5  2  0
  4  6  2  0
  6  7  1  0
  7  8  1  0
  6  9  1  0
  1 10  1  0
  8 10  2  0
  5 11  1  0
  7 12  2  3
 12 13  1  0
  5 14  1  0
 10 14  1  0
M  END
$$$$

     RDKit          3D

 14 15  0  0  0  0  0  0  0  0999 V2000
  139.5550  150.5075  140.4438 C   0  0  0  0  0  0  0  0  0  0  0  0
  139.2165  150.0149  139.3725 C   0  0  0  0  0  0  0  0  0  0  0  0
  138.8581  150.3072  141.5852 C   0  0  0  0  0  0  0  0  0  0  0  0
  139.2270  150.3459  142.8891 C   0  0  0  0  0  0  0  0  0  0  0  0
  138.5608  151.2821  143.6742 C   0  0  0  0  0  0  0  0  0  0  0  0
  137.8570  149.4552  139.3184 C   0  0  0  0  0  0  0  0  0  0  0  0
  137.4753  151.5817  143.4203 C   0  0  0  0  0  0  0  0  0  0  0  0
  137.3786  148.8877  138.1379 C   0  0  0  0  0  0  0  0  0  0  0  0
  136.7351  152.5036  144.4173 C   0  0  0  0  0  0  0  0  0  0  0  0
  136.9154  151.0404  142.2130 C   0  0  0  0  0  0  0  0  0  0  0  0
  137.4527  150.3400  141.4496 C   0  0  0  0  0  0  0  0  0  0  0  0
  137.2326  153.7189  144.7494 C   0  0  0  0  0  0  0  0  0  0  0  0
  136.7051  149.6883  140.4799 C   0  0  0  0  0  0  0  0  0  0  0  0
  135.7752  152.0310  144.8423 O   0  0  0  0  0  0  0  0  0  0  0  0
  1  2  2  0
  1  3  1  0
  3  4  1  0
  4  5  2  0
  2  6  1  0
  5  7  1  0
  6  8  1  0
  7  9  1  0
  7 10  2  0
  3 11  2  0
 10 11  1  0
  9 12  1  0
  6 13  2  0
 11 13  1  0
  9 14  2  0
M  END
$$$$

     RDKit          3D

 14 15  0  0  0  0  0  0  0  0999 V2000
  138.7086  151.1469  142.6266 C   0  0  0  0  0  0  0  0  0  0  0  0
  138.5250  151.9368  143.5112 C   0  0  0  0  0  0  0  0  0  0  0  0
  137.3811  151.6572  144.3961 C   0  0  0  0  0  0  0  0  0  0  0  0
  139.7008  151.1089  141.6121 C   0  0  0  0  0  0  0  0  0  0  0  0
  136.7115  150.4275  144.0247 C   0  0  0  0  0  0  0  0  0  0  0  0
  139.4933  150.4714  140.3262 C   0  0  0  0  0  0  0  0  0  0  0  0
  138.3034  149.7102  140.4068 C   0  0  0  0  0  0  0  0  0  0  0  0
  137.7753  150.0657  142.1256 C   0  0  0  0  0  0  0  0  0  0  0  0
  137.1584  152.6311  145.4327 C   0  0  0  0  0  0  0  0  0  0  0  0
  137.9988  149.0738  139.0184 C   0  0  0  0  0  0  0  0  0  0  0  0
  137.1264  149.5921  141.2406 C   0  0  0  0  0  0  0  0  0  0  0  0
  136.9224  149.7412  143.3939 N   0  0  0  0  0  0  0  0  0  0  0  0
  135.3923  151.1210  144.7605 C   0  0  0  0  0  0  0  0  0  0  0  0
  135.9104  152.6415  145.4878 C   0  0  0  0  0  0  0  0  0  0  0  0
  1  2  1  0
  2  3  2  3
  1  4  1  0
  3  5  1  0
  4  6  2  0
  6  7  1  0
  1  8  2  0
  3  9  1  0
  7 10  1  0
  7 11  2  0
  8 11  1  0
  8 12  1  0
  5 13  2  0
  9 14  2  0
 13 14  1  0
M  END
$$$$

     RDKit          3D

 14 15  0  0  0  0  0  0  0  0999 V2000
  139.5550  150.5075  140.4438 C   0  0  0  0  0  0  0  0  0  0  0  0
  139.2165  150.0149  139.3725 C   0  0  0  0  0  0  0  0  0  0  0  0
  138.8581  150.3072  141.5852 C   0  0  0  0  0  0  0  0  0  0  0  0
  139.2270  150.3459  142.8891 C   0  0  0  0  0  0  0  0  0  0  0  0
  138.5608  151.2821  143.6742 C   0  0  0  0  0  0  0  0  0  0  0  0
  137.8570  149.4552  139.3184 C   0  0  0  0  0  0  0  0  0  0  0  0
  137.3188  148.9492  138.1191 C   0  0  0  0  0  0  0  0  0  0  0  0
  137.4559  151.5660  143.4421 C   0  0  0  0  0  0  0  0  0  0  0  0
  136.7226  152.4686  144.4558 C   0  0  0  0  0  0  0  0  0  0  0  0
  136.9013  150.9868  142.2674 C   0  0  0  0  0  0  0  0  0  0  0  0
  135.4749  152.1542  144.9656 C   0  0  0  0  0  0  0  0  0  0  0  0
  137.6107  150.3740  141.4480 C   0  0  0  0  0  0  0  0  0  0  0  0
  135.3043  151.0907  145.6243 C   0  0  0  0  0  0  0  0  0  0  0  0
  137.0126  149.8050  140.3804 N   0  0  0  0  0  0  0  0  0  0  0  0
  1  2  2  0
  1  3  1  0
  3  4  1  0
  4  5  2  0
  2  6  1  0
  6  7  1  0
  5  8  1  0
  8  9  1  0
  8 10  2  0
  9 11  1  0
  3 12  2  0
 10 12  1  0
 11 13  1  0
  6 14  2  0
 12 14  1  0
M  END
$$$$

     RDKit          3D

 14 15  0  0  0  0  0  0  0  0999 V2000
  139.5550  150.5075  140.4438 C   0  0  0  0  0  0  0  0  0  0  0  0
  139.2165  150.0149  139.3725 C   0  0  0  0  0  0  0  0  0  0  0  0
  138.8581  150.3072  141.5852 C   0  0  0  0  0  0  0  0  0  0  0  0
  139.2270  150.3459  142.8891 C   0  0  0  0  0  0  0  0  0  0  0  0
  138.5608  151.2821  143.6742 C   0  0  0  0  0  0  0  0  0  0  0  0
  137.8570  149.4552  139.3184 C   0  0  0  0  0  0  0  0  0  0  0  0
  137.4753  151.5817  143.4203 C   0  0  0  0  0  0  0  0  0  0  0  0
  137.3786  148.8877  138.1379 C   0  0  0  0  0  0  0  0  0  0  0  0
  136.7351  152.5036  144.4173 C   0  0  0  0  0  0  0  0  0  0  0  0
  137.4806  150.0694  141.2329 C   0  0  0  0  0  0  0  0  0  0  0  0
  137.0073  149.6820  140.3588 C   0  0  0  0  0  0  0  0  0  0  0  0
  135.5833  152.1007  145.1002 C   0  0  0  0  0  0  0  0  0  0  0  0
  135.6828  151.0478  145.9676 C   0  0  0  0  0  0  0  0  0  0  0  0
  136.7471  150.5990  142.6033 N   0  0  0  0  0  0  0  0  0  0  0  0
  1  2  2  0
  1  3  1  0
  3  4  1  0
  4  5  2  0
  2  6  1  0
  5  7  1  0
  6  8  1  0
  7  9  1  0
  3 10  2  0
  6 11  2  0
 10 11  1  0
  9 12  2  3
 12 13  1  0
  7 14  2  0
 10 14  1  0
M  END
$$$$

     RDKit          3D

 14 14  0  0  0  0  0  0  0  0999 V2000
  138.9697  151.3146  142.5684 C   0  0  0  0  0  0  0  0  0  0  0  0
  138.6018  152.0883  143.2657 C   0  0  0  0  0  0  0  0  0  0  0  0
  137.4864  151.7371  144.1980 C   0  0  0  0  0  0  0  0  0  0  0  0
  139.9864  151.4011  141.4219 C   0  0  0  0  0  0  0  0  0  0  0  0
  139.7068  150.7354  140.2267 C   0  0  0  0  0  0  0  0  0  0  0  0
  138.4808  149.8562  142.3647 C   0  0  0  0  0  0  0  0  0  0  0  0
  137.2037  150.4273  144.3413 C   0  0  0  0  0  0  0  0  0  0  0  0
  138.7871  149.7780  140.0794 C   0  0  0  0  0  0  0  0  0  0  0  0
  136.6054  152.5478  145.0308 C   0  0  0  0  0  0  0  0  0  0  0  0
  137.3554  149.4255  141.7854 C   0  0  0  0  0  0  0  0  0  0  0  0
  136.9228  153.8542  145.2248 C   0  0  0  0  0  0  0  0  0  0  0  0
  140.7268  151.1757  139.1909 C   0  0  0  0  0  0  0  0  0  0  0  0
  135.8079  152.0134  145.4830 O   0  0  0  0  0  0  0  0  0  0  0  0
  137.8038  149.1269  140.4888 C   0  0  0  0  0  0  0  0  0  0  0  0
  1  2  1  0
  2  3  2  3
  1  4  1  0
  4  5  2  0
  1  6  2  0
  3  7  1  0
  5  8  1  0
  3  9  1  0
  6 10  1  0
  9 11  1  0
  5 12  1  0
  9 13  2  0
  8 14  1  0
 10 14  1  0
M  END
$$$$

     RDKit          3D

 14 14  0  0  0  0  0  0  0  0999 V2000
  138.9697  151.3146  142.5684 C   0  0  0  0  0  0  0  0  0  0  0  0
  138.6018  152.0883  143.2657 C   0  0  0  0  0  0  0  0  0  0  0  0
  137.4864  151.7371  144.1980 C   0  0  0  0  0  0  0  0  0  0  0  0
  139.9864  151.4011  141.4219 C   0  0  0  0  0  0  0  0  0  0  0  0
  139.7068  150.7354  140.2267 C   0  0  0  0  0  0  0  0  0  0  0  0
  138.4808  149.8562  142.3647 C   0  0  0  0  0  0  0  0  0  0  0  0
  137.2037  150.4273  144.3413 C   0  0  0  0  0  0  0  0  0  0  0  0
  138.7871  149.7780  140.0794 C   0  0  0  0  0  0  0  0  0  0  0  0
  136.6054  152.5478  145.0308 C   0  0  0  0  0  0  0  0  0  0  0  0
  137.3554  149.4255  141.7854 C   0  0  0  0  0  0  0  0  0  0  0  0
  136.9228  153.8542  145.2248 C   0  0  0  0  0  0  0  0  0  0  0  0
  140.7268  151.1757  139.1909 C   0  0  0  0  0  0  0  0  0  0  0  0
  135.8079  152.0134  145.4830 O   0  0  0  0  0  0  0  0  0  0  0  0
  137.8038  149.1269  140.4888 C   0  0  0  0  0  0  0  0  0  0  0  0
  1  2  1  0
  2  3  2  3
  1  4  1  0
  4  5  2  0
  1  6  2  0
  3  7  1  0
  5  8  1  0
  3  9  1  0
  6 10  1  0
  9 11  1  0
  5 12  1  0
  9 13  2  0
  8 14  2  0
 10 14  1  0
M  END
$$$$

     RDKit          3D

 14 15  0  0  0  0  0  0  0  0999 V2000
  139.3428  149.9936  140.5898 C   0  0  0  0  0  0  0  0  0  0  0  0
  138.9752  149.9369  139.3605 C   0  0  0  0  0  0  0  0  0  0  0  0
  138.5862  150.0774  141.6376 C   0  0  0  0  0  0  0  0  0  0  0  0
  137.2156  149.9043  141.8335 C   0  0  0  0  0  0  0  0  0  0  0  0
  136.5021  149.8247  140.5813 C   0  0  0  0  0  0  0  0  0  0  0  0
  139.1845  150.3562  143.1502 C   0  0  0  0  0  0  0  0  0  0  0  0
  138.3557  151.1252  143.9047 C   0  0  0  0  0  0  0  0  0  0  0  0
  137.0207  151.0827  143.8126 C   0  0  0  0  0  0  0  0  0  0  0  0
  136.3365  150.4110  142.8287 C   0  0  0  0  0  0  0  0  0  0  0  0
  136.0668  151.8284  145.0545 C   0  0  0  0  0  0  0  0  0  0  0  0
  134.9518  151.2935  145.3438 C   0  0  0  0  0  0  0  0  0  0  0  0
  139.7619  149.9414  138.2104 C   0  0  0  0  0  0  0  0  0  0  0  0
  137.1971  149.6284  139.3147 C   0  0  0  0  0  0  0  0  0  0  0  0
  136.4421  152.7900  145.2932 O   0  0  0  0  0  0  0  0  0  0  0  0
  1  2  2  0
  1  3  1  0
  3  4  1  0
  4  5  2  0
  3  6  1  0
  6  7  2  0
  7  8  1  0
  4  9  1  0
  8  9  2  0
  8 10  1  0
 10 11  1  0
  2 12  1  0
  2 13  1  0
  5 13  1  0
 10 14  2  0
M  END
$$$$

     RDKit          3D

 14 15  0  0  0  0  0  0  0  0999 V2000
  139.5550  150.5075  140.4438 C   0  0  0  0  0  0  0  0  0  0  0  0
  139.2165  150.0149  139.3725 C   0  0  0  0  0  0  0  0  0  0  0  0
  138.8581  150.3072  141.5852 C   0  0  0  0  0  0  0  0  0  0  0  0
  139.2270  150.3459  142.8891 C   0  0  0  0  0  0  0  0  0  0  0  0
  138.5608  151.2821  143.6742 C   0  0  0  0  0  0  0  0  0  0  0  0
  137.8570  149.4552  139.3184 C   0  0  0  0  0  0  0  0  0  0  0  0
  137.4753  151.5817  143.4203 C   0  0  0  0  0  0  0  0  0  0  0  0
  137.3786  148.8877  138.1379 C   0  0  0  0  0  0  0  0  0  0  0  0
  136.7351  152.5036  144.4173 C   0  0  0  0  0  0  0  0  0  0  0  0
  137.4806  150.0694  141.2329 C   0  0  0  0  0  0  0  0  0  0  0  0
  137.0073  149.6820  140.3588 C   0  0  0  0  0  0  0  0  0  0  0  0
  135.5833  152.1007  145.1002 C   0  0  0  0  0  0  0  0  0  0  0  0
  135.6828  151.0478  145.9676 C   0  0  0  0  0  0  0  0  0  0  0  0
  136.7471  150.5990  142.6033 C   0  0  0  0  0  0  0  0  0  0  0  0
  1  2  2  0
  1  3  1  0
  3  4  1  0
  4  5  2  0
  2  6  1  0
  5  7  1  0
  6  8  1  0
  7  9  1  0
  3 10  2  0
  6 11  2  0
 10 11  1  0
  9 12  2  3
 12 13  1  0
  7 14  2  0
 10 14  1  0
M  END
$$$$

     RDKit          3D

 14 15  0  0  0  0  0  0  0  0999 V2000
  138.7086  151.1469  142.6266 C   0  0  0  0  0  0  0  0  0  0  0  0
  138.5250  151.9368  143.5112 C   0  0  0  0  0  0  0  0  0  0  0  0
  137.3811  151.6572  144.3961 C   0  0  0  0  0  0  0  0  0  0  0  0
  139.7008  151.1089  141.6121 C   0  0  0  0  0  0  0  0  0  0  0  0
  136.7115  150.4275  144.0247 C   0  0  0  0  0  0  0  0  0  0  0  0
  139.4933  150.4714  140.3262 C   0  0  0  0  0  0  0  0  0  0  0  0
  138.3034  149.7102  140.4068 C   0  0  0  0  0  0  0  0  0  0  0  0
  137.7401  150.0401  142.1735 C   0  0  0  0  0  0  0  0  0  0  0  0
  137.0235  152.5597  145.4530 C   0  0  0  0  0  0  0  0  0  0  0  0
  137.9777  149.0926  139.0251 C   0  0  0  0  0  0  0  0  0  0  0  0
  136.0004  153.1680  145.3743 C   0  0  0  0  0  0  0  0  0  0  0  0
  137.3985  149.5423  141.3184 C   0  0  0  0  0  0  0  0  0  0  0  0
  137.0664  149.8212  143.3443 N   0  0  0  0  0  0  0  0  0  0  0  0
  136.6259  149.3252  144.2024 C   0  0  0  0  0  0  0  0  0  0  0  0
  1  2  1  0
  2  3  2  0
  1  4  1  0
  3  5  1  0
  4  6  2  0
  6  7  1  0
  1  8  2  0
  3  9  1  0
  7 10  1  0
  9 11  2  0
  7 12  2  0
  8 12  1  0
  8 13  1  0
  5 14  1  0
 13 14  2  0
M  END
$$$$

     RDKit          3D

 14 15  0  0  0  0  0  0  0  0999 V2000
  138.7086  151.1469  142.6266 C   0  0  0  0  0  0  0  0  0  0  0  0
  138.5250  151.9368  143.5112 C   0  0  0  0  0  0  0  0  0  0  0  0
  137.3811  151.6572  144.3961 C   0  0  0  0  0  0  0  0  0  0  0  0
  139.7008  151.1089  141.6121 C   0  0  0  0  0  0  0  0  0  0  0  0
  136.7115  150.4275  144.0247 C   0  0  0  0  0  0  0  0  0  0  0  0
  139.4933  150.4714  140.3262 C   0  0  0  0  0  0  0  0  0  0  0  0
  138.3034  149.7102  140.4068 C   0  0  0  0  0  0  0  0  0  0  0  0
  137.7401  150.0401  142.1735 C   0  0  0  0  0  0  0  0  0  0  0  0
  137.0235  152.5597  145.4530 C   0  0  0  0  0  0  0  0  0  0  0  0
  137.9777  149.0926  139.0251 C   0  0  0  0  0  0  0  0  0  0  0  0
  136.8148  149.7385  142.9699 C   0  0  0  0  0  0  0  0  0  0  0  0
  137.4257  149.4594  141.3287 N   0  0  0  0  0  0  0  0  0  0  0  0
  135.7157  152.5615  145.9889 C   0  0  0  0  0  0  0  0  0  0  0  0
  140.5413  150.5685  139.4385 C   0  0  0  0  0  0  0  0  0  0  0  0
  1  2  1  0
  2  3  2  0
  1  4  1  0
  3  5  1  0
  4  6  2  0
  6  7  1  0
  1  8  2  0
  3  9  1  0
  7 10  1  0
  5 11  2  0
  8 11  1  0
  7 12  2  0
  8 12  1  0
  9 13  1  0
  6 14  1  0
M  END
$$$$

     RDKit          3D

 14 14  0  0  0  0  0  0  0  0999 V2000
  138.7086  151.1469  142.6266 C   0  0  0  0  0  0  0  0  0  0  0  0
  138.5250  151.9368  143.5112 C   0  0  0  0  0  0  0  0  0  0  0  0
  137.3811  151.6572  144.3961 C   0  0  0  0  0  0  0  0  0  0  0  0
  139.7008  151.1089  141.6121 C   0  0  0  0  0  0  0  0  0  0  0  0
  136.7115  150.4275  144.0247 C   0  0  0  0  0  0  0  0  0  0  0  0
  139.4933  150.4714  140.3262 C   0  0  0  0  0  0  0  0  0  0  0  0
  138.3034  149.7102  140.4068 C   0  0  0  0  0  0  0  0  0  0  0  0
  137.7401  150.0401  142.1735 C   0  0  0  0  0  0  0  0  0  0  0  0
  137.0235  152.5597  145.4530 C   0  0  0  0  0  0  0  0  0  0  0  0
  137.2653  149.5016  141.2220 C   0  0  0  0  0  0  0  0  0  0  0  0
  136.7234  149.8435  143.3232 N   0  0  0  0  0  0  0  0  0  0  0  0
  140.6448  150.6620  139.3697 C   0  0  0  0  0  0  0  0  0  0  0  0
  136.1134  149.6965  144.0340 C   0  0  0  0  0  0  0  0  0  0  0  0
  135.9656  150.4476  145.1356 C   0  0  0  0  0  0  0  0  0  0  0  0
  1  2  1  0
  2  3  2  3
  1  4  1  0
  3  5  1  0
  4  6  2  0
  6  7  1  0
  1  8  2  0
  3  9  1  0
  7 10  2  0
  8 10  1  0
  8 11  1  0
  6 12  1  0
  5 14  1  0
 13 14  1  0
M  END
$$$$

     RDKit          3D

 14 15  0  0  0  0  0  0  0  0999 V2000
  138.9697  151.3146  142.5684 C   0  0  0  0  0  0  0  0  0  0  0  0
  138.6018  152.0883  143.2657 C   0  0  0  0  0  0  0  0  0  0  0  0
  139.7627  151.4691  141.3553 C   0  0  0  0  0  0  0  0  0  0  0  0
  137.7629  151.7021  144.3622 C   0  0  0  0  0  0  0  0  0  0  0  0
  137.3916  150.2976  144.2722 C   0  0  0  0  0  0  0  0  0  0  0  0
  139.5884  150.5272  140.3063 C   0  0  0  0  0  0  0  0  0  0  0  0
  138.7536  149.4626  140.7016 C   0  0  0  0  0  0  0  0  0  0  0  0
  137.8316  149.5886  141.7036 C   0  0  0  0  0  0  0  0  0  0  0  0
  138.0887  150.1737  142.9585 C   0  0  0  0  0  0  0  0  0  0  0  0
  137.1789  152.3135  145.6073 C   0  0  0  0  0  0  0  0  0  0  0  0
  140.4233  150.5557  139.2188 C   0  0  0  0  0  0  0  0  0  0  0  0
  136.0031  152.7656  145.5016 C   0  0  0  0  0  0  0  0  0  0  0  0
  135.7306  153.9932  145.0598 O   0  0  0  0  0  0  0  0  0  0  0  0
  134.8926  152.0640  145.8583 O   0  0  0  0  0  0  0  0  0  0  0  0
  1  2  1  0
  1  3  1  0
  2  4  2  0
  4  5  1  0
  3  6  2  0
  6  7  1  0
  7  8  2  0
  1  9  2  0
  5  9  1  0
  8  9  1  0
  4 10  1  0
  6 11  1  0
 10 12  1  0
 12 13  2  0
 12 14  1  0
M  END
$$$$

     RDKit          3D

 14 15  0  0  0  0  0  0  0  0999 V2000
  139.0010  149.7643  140.3643 C   0  0  0  0  0  0  0  0  0  0  0  0
  138.7144  149.5449  139.1247 C   0  0  0  0  0  0  0  0  0  0  0  0
  138.1840  150.1020  141.2852 C   0  0  0  0  0  0  0  0  0  0  0  0
  139.6385  149.1413  138.0959 C   0  0  0  0  0  0  0  0  0  0  0  0
  136.6881  150.0305  141.1796 C   0  0  0  0  0  0  0  0  0  0  0  0
  135.7984  150.1278  142.2481 C   0  0  0  0  0  0  0  0  0  0  0  0
  136.4562  150.6806  143.3963 C   0  0  0  0  0  0  0  0  0  0  0  0
  135.7469  151.0481  144.6522 C   0  0  0  0  0  0  0  0  0  0  0  0
  136.1660  152.3400  145.2923 C   0  0  0  0  0  0  0  0  0  0  0  0
  137.8404  151.0220  143.7610 C   0  0  0  0  0  0  0  0  0  0  0  0
  138.7331  150.7531  142.5013 C   0  0  0  0  0  0  0  0  0  0  0  0
  137.2294  152.9212  144.9482 C   0  0  0  0  0  0  0  0  0  0  0  0
  138.3113  152.0792  144.5587 C   0  0  0  0  0  0  0  0  0  0  0  0
  135.1384  152.8333  146.3640 C   0  0  0  0  0  0  0  0  0  0  0  0
  1  2  2  3
  1  3  1  0
  2  4  1  0
  3  5  2  0
  5  6  1  0
  6  7  2  0
  7  8  1  0
  8  9  1  0
  7 10  1  0
  3 11  1  0
 10 11  2  0
  9 12  2  0
 10 13  1  0
 12 13  1  0
  9 14  1  0
M  END
$$$$

     RDKit          3D

 14 15  0  0  0  0  0  0  0  0999 V2000
  138.7086  151.1469  142.6266 C   0  0  0  0  0  0  0  0  0  0  0  0
  138.5250  151.9368  143.5112 C   0  0  0  0  0  0  0  0  0  0  0  0
  137.3811  151.6572  144.3961 C   0  0  0  0  0  0  0  0  0  0  0  0
  139.7008  151.1089  141.6121 C   0  0  0  0  0  0  0  0  0  0  0  0
  136.7115  150.4275  144.0247 C   0  0  0  0  0  0  0  0  0  0  0  0
  139.4933  150.4714  140.3262 C   0  0  0  0  0  0  0  0  0  0  0  0
  138.3034  149.7102  140.4068 C   0  0  0  0  0  0  0  0  0  0  0  0
  137.7753  150.0657  142.1256 C   0  0  0  0  0  0  0  0  0  0  0  0
  137.1584  152.6311  145.4327 C   0  0  0  0  0  0  0  0  0  0  0  0
  137.9988  149.0738  139.0184 C   0  0  0  0  0  0  0  0  0  0  0  0
  137.1264  149.5921  141.2406 C   0  0  0  0  0  0  0  0  0  0  0  0
  136.9224  149.7412  143.3939 N   0  0  0  0  0  0  0  0  0  0  0  0
  135.3923  151.1210  144.7605 C   0  0  0  0  0  0  0  0  0  0  0  0
  135.9104  152.6415  145.4878 C   0  0  0  0  0  0  0  0  0  0  0  0
  1  2  1  0
  2  3  2  3
  1  4  1  0
  3  5  1  0
  4  6  2  0
  6  7  1  0
  1  8  2  0
  3  9  1  0
  7 10  1  0
  7 11  2  0
  8 11  1  0
  8 12  1  0
  5 13  2  0
  9 14  1  0
 13 14  1  0
M  END
$$$$

     RDKit          3D

 14 15  0  0  0  0  0  0  0  0999 V2000
  139.0010  149.7643  140.3643 C   0  0  0  0  0  0  0  0  0  0  0  0
  138.7144  149.5449  139.1247 C   0  0  0  0  0  0  0  0  0  0  0  0
  138.1840  150.1020  141.2852 C   0  0  0  0  0  0  0  0  0  0  0  0
  139.6385  149.1413  138.0959 C   0  0  0  0  0  0  0  0  0  0  0  0
  136.6881  150.0305  141.1796 C   0  0  0  0  0  0  0  0  0  0  0  0
  135.7984  150.1278  142.2481 C   0  0  0  0  0  0  0  0  0  0  0  0
  136.4562  150.6806  143.3963 C   0  0  0  0  0  0  0  0  0  0  0  0
  135.7469  151.0481  144.6522 C   0  0  0  0  0  0  0  0  0  0  0  0
  136.1660  152.3400  145.2923 C   0  0  0  0  0  0  0  0  0  0  0  0
  137.8404  151.0220  143.7610 C   0  0  0  0  0  0  0  0  0  0  0  0
  138.7331  150.7531  142.5013 C   0  0  0  0  0  0  0  0  0  0  0  0
  137.2294  152.9212  144.9482 C   0  0  0  0  0  0  0  0  0  0  0  0
  138.3681  151.8865  144.6292 C   0  0  0  0  0  0  0  0  0  0  0  0
  135.2726  152.8048  145.9038 O   0  0  0  0  0  0  0  0  0  0  0  0
  1  2  2  3
  1  3  1  0
  2  4  1  0
  3  5  2  0
  5  6  1  0
  6  7  2  0
  7  8  1  0
  8  9  1  0
  7 10  1  0
  3 11  1  0
 10 11  2  0
  9 12  1  0
 10 13  1  0
 12 13  1  0
  9 14  2  0
M  END
$$$$

     RDKit          3D

 14 15  0  0  0  0  0  0  0  0999 V2000
  139.0010  149.7643  140.3643 C   0  0  0  0  0  0  0  0  0  0  0  0
  138.7144  149.5449  139.1247 C   0  0  0  0  0  0  0  0  0  0  0  0
  138.1840  150.1020  141.2852 C   0  0  0  0  0  0  0  0  0  0  0  0
  137.3200  149.5871  138.6815 C   0  0  0  0  0  0  0  0  0  0  0  0
  136.4668  149.5647  139.6600 C   0  0  0  0  0  0  0  0  0  0  0  0
  138.6203  150.4924  142.6513 C   0  0  0  0  0  0  0  0  0  0  0  0
  137.7616  150.9851  143.6296 C   0  0  0  0  0  0  0  0  0  0  0  0
  136.4770  150.9768  143.2092 C   0  0  0  0  0  0  0  0  0  0  0  0
  136.7704  150.0241  141.0188 C   0  0  0  0  0  0  0  0  0  0  0  0
  135.4317  151.4460  144.1527 C   0  0  0  0  0  0  0  0  0  0  0  0
  135.7562  150.6491  142.2357 C   0  0  0  0  0  0  0  0  0  0  0  0
  134.9841  150.8835  145.1889 C   0  0  0  0  0  0  0  0  0  0  0  0
  135.7883  152.9643  144.3811 C   0  0  0  0  0  0  0  0  0  0  0  0
  136.4051  153.2429  145.6999 C   0  0  0  0  0  0  0  0  0  0  0  0
  1  2  2  0
  1  3  1  0
  2  4  1  0
  4  5  2  0
  3  6  1  0
  6  7  2  0
  7  8  1  0
  3  9  2  0
  5  9  1  0
  8 10  1  0
  8 11  2  0
  9 11  1  0
 10 12  1  0
 10 13  1  0
 13 14  1  0
M  END
$$$$

     RDKit          3D

 14 15  0  0  0  0  0  0  0  0999 V2000
  138.9697  151.3146  142.5684 C   0  0  0  0  0  0  0  0  0  0  0  0
  138.6018  152.0883  143.2657 C   0  0  0  0  0  0  0  0  0  0  0  0
  137.6374  151.6902  144.0814 C   0  0  0  0  0  0  0  0  0  0  0  0
  140.0289  151.3257  141.4197 C   0  0  0  0  0  0  0  0  0  0  0  0
  137.1948  150.3123  143.8930 C   0  0  0  0  0  0  0  0  0  0  0  0
  139.8113  150.4471  140.2754 C   0  0  0  0  0  0  0  0  0  0  0  0
  138.3589  149.9782  142.3814 C   0  0  0  0  0  0  0  0  0  0  0  0
  136.9986  152.5640  145.1732 C   0  0  0  0  0  0  0  0  0  0  0  0
  139.0500  149.5399  140.1678 C   0  0  0  0  0  0  0  0  0  0  0  0
  138.1751  149.3630  141.3986 C   0  0  0  0  0  0  0  0  0  0  0  0
  140.7446  150.8612  139.2213 C   0  0  0  0  0  0  0  0  0  0  0  0
  137.5030  149.6282  143.4208 N   0  0  0  0  0  0  0  0  0  0  0  0
  137.0224  149.4956  144.3244 C   0  0  0  0  0  0  0  0  0  0  0  0
  136.4952  150.2417  145.2015 C   0  0  0  0  0  0  0  0  0  0  0  0
  1  2  1  0
  2  3  2  0
  1  4  1  0
  3  5  1  0
  4  6  1  0
  1  7  2  0
  3  8  1  0
  6  9  1  0
  7 10  1  0
  9 10  2  0
  6 11  2  0
  7 12  1  0
 12 13  1  0
  5 14  2  0
 13 14  1  0
M  END
$$$$

     RDKit          3D

 14 15  0  0  0  0  0  0  0  0999 V2000
  139.0010  149.7643  140.3643 C   0  0  0  0  0  0  0  0  0  0  0  0
  138.7144  149.5449  139.1247 C   0  0  0  0  0  0  0  0  0  0  0  0
  138.1840  150.1020  141.2852 C   0  0  0  0  0  0  0  0  0  0  0  0
  137.3200  149.5871  138.6815 C   0  0  0  0  0  0  0  0  0  0  0  0
  136.4668  149.5647  139.6600 C   0  0  0  0  0  0  0  0  0  0  0  0
  138.6203  150.4924  142.6513 C   0  0  0  0  0  0  0  0  0  0  0  0
  137.7616  150.9851  143.6296 C   0  0  0  0  0  0  0  0  0  0  0  0
  136.4770  150.9768  143.2092 C   0  0  0  0  0  0  0  0  0  0  0  0
  136.7704  150.0241  141.0188 C   0  0  0  0  0  0  0  0  0  0  0  0
  135.4317  151.4460  144.1527 C   0  0  0  0  0  0  0  0  0  0  0  0
  136.1335  150.4081  142.0126 C   0  0  0  0  0  0  0  0  0  0  0  0
  135.1492  151.0167  145.1858 C   0  0  0  0  0  0  0  0  0  0  0  0
  135.8964  150.1692  145.8817 C   0  0  0  0  0  0  0  0  0  0  0  0
  134.1372  151.5483  146.1007 C   0  0  0  0  0  0  0  0  0  0  0  0
  1  2  2  0
  1  3  1  0
  2  4  1  0
  4  5  2  0
  3  6  1  0
  6  7  2  0
  7  8  1  0
  3  9  2  0
  5  9  1  0
  8 10  1  0
  8 11  2  0
  9 11  1  0
 10 12  1  0
 12 13  1  0
 12 14  2  0
M  END
$$$$

     RDKit          3D

 14 15  0  0  0  0  0  0  0  0999 V2000
  138.9697  151.3146  142.5684 C   0  0  0  0  0  0  0  0  0  0  0  0
  138.6018  152.0883  143.2657 C   0  0  0  0  0  0  0  0  0  0  0  0
  137.4864  151.7371  144.1980 C   0  0  0  0  0  0  0  0  0  0  0  0
  139.9864  151.4011  141.4219 C   0  0  0  0  0  0  0  0  0  0  0  0
  139.7068  150.7354  140.2267 C   0  0  0  0  0  0  0  0  0  0  0  0
  138.4808  149.8562  142.3647 C   0  0  0  0  0  0  0  0  0  0  0  0
  137.2037  150.4273  144.3413 C   0  0  0  0  0  0  0  0  0  0  0  0
  138.7871  149.7780  140.0794 C   0  0  0  0  0  0  0  0  0  0  0  0
  136.6054  152.5478  145.0308 C   0  0  0  0  0  0  0  0  0  0  0  0
  137.3554  149.4255  141.7854 C   0  0  0  0  0  0  0  0  0  0  0  0
  140.8475  151.1886  139.2976 C   0  0  0  0  0  0  0  0  0  0  0  0
  137.7652  149.1349  140.5144 C   0  0  0  0  0  0  0  0  0  0  0  0
  138.0573  149.4551  143.7463 N   0  0  0  0  0  0  0  0  0  0  0  0
  135.3621  152.2045  145.4491 C   0  0  0  0  0  0  0  0  0  0  0  0
  1  2  1  0
  2  3  2  0
  1  4  1  0
  4  5  2  0
  1  6  2  0
  3  7  1  0
  5  8  1  0
  3  9  1  0
  6 10  1  0
  5 11  1  0
  8 12  2  0
 10 12  1  0
  6 13  1  0
  7 13  2  0
  9 14  1  0
M  END
$$$$

     RDKit          3D

 14 15  0  0  0  0  0  0  0  0999 V2000
  138.9697  151.3146  142.5684 C   0  0  0  0  0  0  0  0  0  0  0  0
  138.6018  152.0883  143.2657 C   0  0  0  0  0  0  0  0  0  0  0  0
  137.6374  151.6902  144.0814 C   0  0  0  0  0  0  0  0  0  0  0  0
  140.0289  151.3257  141.4197 C   0  0  0  0  0  0  0  0  0  0  0  0
  137.1948  150.3123  143.8930 C   0  0  0  0  0  0  0  0  0  0  0  0
  139.8113  150.4471  140.2754 C   0  0  0  0  0  0  0  0  0  0  0  0
  138.3589  149.9782  142.3814 C   0  0  0  0  0  0  0  0  0  0  0  0
  136.9904  152.6012  145.1159 C   0  0  0  0  0  0  0  0  0  0  0  0
  139.0526  149.5381  140.1691 C   0  0  0  0  0  0  0  0  0  0  0  0
  138.4971  148.9797  139.0146 C   0  0  0  0  0  0  0  0  0  0  0  0
  137.2738  149.4769  143.0123 N   0  0  0  0  0  0  0  0  0  0  0  0
  138.3377  149.0791  141.1562 N   0  0  0  0  0  0  0  0  0  0  0  0
  140.7003  150.5539  139.2227 C   0  0  0  0  0  0  0  0  0  0  0  0
  137.2763  148.7236  138.7713 C   0  0  0  0  0  0  0  0  0  0  0  0
  1  2  1  0
  2  3  2  0
  1  4  1  0
  3  5  1  0
  4  6  1  0
  1  7  2  0
  3  8  1  0
  6  9  1  0
  9 10  2  3
  5 11  2  0
  7 11  1  0
  7 12  1  0
  9 12  1  0
  6 13  2  0
 10 14  1  0
M  END
$$$$

     RDKit          3D

 14 15  0  0  0  0  0  0  0  0999 V2000
  138.7086  151.1469  142.6266 C   0  0  0  0  0  0  0  0  0  0  0  0
  138.5250  151.9368  143.5112 C   0  0  0  0  0  0  0  0  0  0  0  0
  137.3905  151.8077  144.0741 C   0  0  0  0  0  0  0  0  0  0  0  0
  136.5952  150.6189  143.9723 C   0  0  0  0  0  0  0  0  0  0  0  0
  137.9808  149.9629  142.2545 C   0  0  0  0  0  0  0  0  0  0  0  0
  136.5092  152.7499  145.0886 C   0  0  0  0  0  0  0  0  0  0  0  0
  135.4520  152.3059  145.6998 C   0  0  0  0  0  0  0  0  0  0  0  0
  135.4638  150.4686  144.8121 C   0  0  0  0  0  0  0  0  0  0  0  0
  134.8865  151.2560  145.6431 C   0  0  0  0  0  0  0  0  0  0  0  0
  138.3834  149.1625  141.1744 C   0  0  0  0  0  0  0  0  0  0  0  0
  138.5835  149.9097  139.9419 C   0  0  0  0  0  0  0  0  0  0  0  0
  136.8864  149.6611  143.0430 N   0  0  0  0  0  0  0  0  0  0  0  0
  138.5354  149.1767  138.7402 C   0  0  0  0  0  0  0  0  0  0  0  0
  134.9891  153.5935  146.5104 C   0  0  0  0  0  0  0  0  0  0  0  0
  1  2  1  0
  2  3  2  0
  3  4  1  0
  1  5  2  0
  3  6  1  0
  6  7  1  0
  4  8  1  0
  7  9  1  0
  8  9  2  0
  5 10  1  0
 10 11  1  0
  4 12  2  0
  5 12  1  0
 11 13  1  0
  7 14  1  0
M  END
$$$$

     RDKit          3D

 14 15  0  0  0  0  0  0  0  0999 V2000
  139.3428  149.9936  140.5898 C   0  0  0  0  0  0  0  0  0  0  0  0
  138.9752  149.9369  139.3605 C   0  0  0  0  0  0  0  0  0  0  0  0
  138.5862  150.0774  141.6376 C   0  0  0  0  0  0  0  0  0  0  0  0
  137.2156  149.9043  141.8335 C   0  0  0  0  0  0  0  0  0  0  0  0
  136.5021  149.8247  140.5813 C   0  0  0  0  0  0  0  0  0  0  0  0
  139.1845  150.3562  143.1502 C   0  0  0  0  0  0  0  0  0  0  0  0
  138.3557  151.1252  143.9047 C   0  0  0  0  0  0  0  0  0  0  0  0
  137.0207  151.0827  143.8126 C   0  0  0  0  0  0  0  0  0  0  0  0
  136.3365  150.4110  142.8287 C   0  0  0  0  0  0  0  0  0  0  0  0
  136.0668  151.8284  145.0545 C   0  0  0  0  0  0  0  0  0  0  0  0
  134.9518  151.2935  145.3438 C   0  0  0  0  0  0  0  0  0  0  0  0
  134.0986  151.9570  146.3757 C   0  0  0  0  0  0  0  0  0  0  0  0
  135.2287  149.5758  140.4134 C   0  0  0  0  0  0  0  0  0  0  0  0
  137.4729  149.7407  139.3549 C   0  0  0  0  0  0  0  0  0  0  0  0
  1  2  2  0
  1  3  1  0
  3  4  1  0
  4  5  2  0
  3  6  1  0
  6  7  2  0
  7  8  1  0
  4  9  1  0
  8  9  2  0
  8 10  1  0
 10 11  2  3
 11 12  1  0
  5 13  1  0
  2 14  1  0
  5 14  1  0
M  END
$$$$

     RDKit          3D

 14 15  0  0  0  0  0  0  0  0999 V2000
  139.0010  149.7643  140.3643 C   0  0  0  0  0  0  0  0  0  0  0  0
  138.7144  149.5449  139.1247 C   0  0  0  0  0  0  0  0  0  0  0  0
  138.1840  150.1020  141.2852 C   0  0  0  0  0  0  0  0  0  0  0  0
  139.6385  149.1413  138.0959 C   0  0  0  0  0  0  0  0  0  0  0  0
  136.6881  150.0305  141.1796 C   0  0  0  0  0  0  0  0  0  0  0  0
  135.7984  150.1278  142.2481 C   0  0  0  0  0  0  0  0  0  0  0  0
  136.4562  150.6806  143.3963 C   0  0  0  0  0  0  0  0  0  0  0  0
  135.7469  151.0481  144.6522 C   0  0  0  0  0  0  0  0  0  0  0  0
  136.1660  152.3400  145.2923 C   0  0  0  0  0  0  0  0  0  0  0  0
  137.8404  151.0220  143.7610 C   0  0  0  0  0  0  0  0  0  0  0  0
  138.7331  150.7531  142.5013 C   0  0  0  0  0  0  0  0  0  0  0  0
  137.2294  152.9212  144.9482 C   0  0  0  0  0  0  0  0  0  0  0  0
  138.1112  152.0739  144.5261 C   0  0  0  0  0  0  0  0  0  0  0  0
  135.2263  152.9322  145.9823 O   0  0  0  0  0  0  0  0  0  0  0  0
  1  2  2  3
  1  3  1  0
  2  4  1  0
  3  5  2  0
  5  6  1  0
  6  7  2  0
  7  8  1  0
  8  9  1  0
  7 10  1  0
  3 11  1  0
 10 11  2  0
  9 12  1  0
 10 13  1  0
 12 13  2  0
  9 14  2  0
M  END
$$$$

     RDKit          3D

 14 15  0  0  0  0  0  0  0  0999 V2000
  140.3019  150.2145  139.4802 Cl  0  0  0  0  0  0  0  0  0  0  0  0
  138.6758  150.1820  140.5311 C   0  0  0  0  0  0  0  0  0  0  0  0
  137.6364  149.3800  140.0902 C   0  0  0  0  0  0  0  0  0  0  0  0
  138.7704  150.9236  141.6515 C   0  0  0  0  0  0  0  0  0  0  0  0
  138.1279  150.9106  142.4389 C   0  0  0  0  0  0  0  0  0  0  0  0
  136.6301  149.5529  140.9768 C   0  0  0  0  0  0  0  0  0  0  0  0
  138.2520  151.5891  143.8343 C   0  0  0  0  0  0  0  0  0  0  0  0
  135.2962  149.1029  140.6962 C   0  0  0  0  0  0  0  0  0  0  0  0
  137.1901  151.7567  144.6952 C   0  0  0  0  0  0  0  0  0  0  0  0
  136.0720  151.0250  144.2022 C   0  0  0  0  0  0  0  0  0  0  0  0
  134.9491  151.2497  145.1214 C   0  0  0  0  0  0  0  0  0  0  0  0
  136.7728  150.3010  142.1601 C   0  0  0  0  0  0  0  0  0  0  0  0
  135.7312  150.4904  143.1336 N   0  0  0  0  0  0  0  0  0  0  0  0
  134.3737  150.5977  145.7529 C   0  0  0  0  0  0  0  0  0  0  0  0
  1  2  1  0
  2  3  1  0
  2  4  2  0
  4  5  1  0
  3  6  2  0
  5  7  1  0
  6  8  1  0
  7  9  2  0
  9 10  1  0
 10 11  1  0
  5 12  2  0
  6 12  1  0
 10 13  2  0
 12 13  1  0
 11 14  2  0
M  END
$$$$

     RDKit          3D

 14 15  0  0  0  0  0  0  0  0999 V2000
  139.0010  149.7643  140.3643 C   0  0  0  0  0  0  0  0  0  0  0  0
  138.7144  149.5449  139.1247 C   0  0  0  0  0  0  0  0  0  0  0  0
  138.1840  150.1020  141.2852 C   0  0  0  0  0  0  0  0  0  0  0  0
  137.3200  149.5871  138.6815 C   0  0  0  0  0  0  0  0  0  0  0  0
  136.4668  149.5647  139.6600 C   0  0  0  0  0  0  0  0  0  0  0  0
  138.6203  150.4924  142.6513 C   0  0  0  0  0  0  0  0  0  0  0  0
  137.7616  150.9851  143.6296 C   0  0  0  0  0  0  0  0  0  0  0  0
  136.4770  150.9768  143.2092 C   0  0  0  0  0  0  0  0  0  0  0  0
  135.5254  151.4160  144.2399 C   0  0  0  0  0  0  0  0  0  0  0  0
  136.7403  150.0044  140.9819 C   0  0  0  0  0  0  0  0  0  0  0  0
  135.1653  151.0499  145.2747 C   0  0  0  0  0  0  0  0  0  0  0  0
  135.8318  150.3852  142.0428 C   0  0  0  0  0  0  0  0  0  0  0  0
  134.9232  151.9066  146.4012 C   0  0  0  0  0  0  0  0  0  0  0  0
  135.0328  153.2803  146.0351 C   0  0  0  0  0  0  0  0  0  0  0  0
  1  2  2  0
  1  3  1  0
  2  4  1  0
  4  5  2  0
  3  6  1  0
  6  7  2  0
  7  8  1  0
  8  9  1  0
  3 10  2  0
  5 10  1  0
  9 11  2  3
  8 12  2  0
 10 12  1  0
 11 13  1  0
 13 14  1  0
M  END
$$$$

     RDKit          3D

 14 15  0  0  0  0  0  0  0  0999 V2000
  138.9697  151.3146  142.5684 C   0  0  0  0  0  0  0  0  0  0  0  0
  138.6018  152.0883  143.2657 C   0  0  0  0  0  0  0  0  0  0  0  0
  137.5210  151.7905  144.2146 C   0  0  0  0  0  0  0  0  0  0  0  0
  139.9450  151.4362  141.4348 C   0  0  0  0  0  0  0  0  0  0  0  0
  137.4509  150.5150  144.7895 C   0  0  0  0  0  0  0  0  0  0  0  0
  139.6483  150.6881  140.3006 C   0  0  0  0  0  0  0  0  0  0  0  0
  138.5290  149.9149  140.3372 C   0  0  0  0  0  0  0  0  0  0  0  0
  137.6578  149.7051  141.5159 C   0  0  0  0  0  0  0  0  0  0  0  0
  138.0468  150.4771  142.6111 C   0  0  0  0  0  0  0  0  0  0  0  0
  136.4796  152.5504  144.4594 C   0  0  0  0  0  0  0  0  0  0  0  0
  137.4723  150.1130  143.7827 N   0  0  0  0  0  0  0  0  0  0  0  0
  140.7199  150.6556  139.1060 Cl  0  0  0  0  0  0  0  0  0  0  0  0
  135.5505  152.5720  145.5347 C   0  0  0  0  0  0  0  0  0  0  0  0
  135.7267  151.8521  146.5348 C   0  0  0  0  0  0  0  0  0  0  0  0
  1  2  2  0
  2  3  1  0
  1  4  1  0
  3  5  2  0
  4  6  2  0
  6  7  1  0
  7  8  2  0
  1  9  1  0
  8  9  1  0
  3 10  1  0
  5 11  1  0
  9 11  2  0
  6 12  1  0
 10 13  1  0
 13 14  2  0
M  END
$$$$

     RDKit          3D

 14 14  0  0  0  0  0  0  0  0999 V2000
  140.3019  150.2145  139.4802 Cl  0  0  0  0  0  0  0  0  0  0  0  0
  138.6758  150.1820  140.5311 C   0  0  0  0  0  0  0  0  0  0  0  0
  137.6364  149.3800  140.0902 C   0  0  0  0  0  0  0  0  0  0  0  0
  137.5436  148.9622  138.7410 C   0  0  0  0  0  0  0  0  0  0  0  0
  138.4827  150.4324  141.7166 C   0  0  0  0  0  0  0  0  0  0  0  0
  136.4911  149.4153  140.9672 C   0  0  0  0  0  0  0  0  0  0  0  0
  137.3926  150.3484  142.5006 C   0  0  0  0  0  0  0  0  0  0  0  0
  137.3763  150.9557  143.9513 C   0  0  0  0  0  0  0  0  0  0  0  0
  135.2377  148.9772  140.1847 C   0  0  0  0  0  0  0  0  0  0  0  0
  136.4661  149.9619  142.0748 N   0  0  0  0  0  0  0  0  0  0  0  0
  138.5307  151.1478  144.6698 C   0  0  0  0  0  0  0  0  0  0  0  0
  136.2303  151.3885  144.6206 C   0  0  0  0  0  0  0  0  0  0  0  0
  136.3640  152.6394  145.2694 C   0  0  0  0  0  0  0  0  0  0  0  0
  135.5448  152.8867  146.3989 C   0  0  0  0  0  0  0  0  0  0  0  0
  1  2  1  0
  2  3  2  0
  3  4  1  0
  2  5  1  0
  3  6  1  0
  5  7  2  0
  7  8  1  0
  6  9  1  0
  6 10  2  0
  7 10  1  0
  8 11  2  0
  8 12  1  0
 12 13  1  0
 13 14  1  0
M  END
$$$$

     RDKit          3D

 14 15  0  0  0  0  0  0  0  0999 V2000
  139.3428  149.9936  140.5898 C   0  0  0  0  0  0  0  0  0  0  0  0
  138.9752  149.9369  139.3605 C   0  0  0  0  0  0  0  0  0  0  0  0
  138.5862  150.0774  141.6376 C   0  0  0  0  0  0  0  0  0  0  0  0
  137.6061  149.8652  139.0267 C   0  0  0  0  0  0  0  0  0  0  0  0
  136.7960  149.6544  140.0716 C   0  0  0  0  0  0  0  0  0  0  0  0
  139.0847  150.3093  143.0275 C   0  0  0  0  0  0  0  0  0  0  0  0
  138.1846  150.8565  144.0192 C   0  0  0  0  0  0  0  0  0  0  0  0
  135.2933  149.6678  139.8622 C   0  0  0  0  0  0  0  0  0  0  0  0
  137.0852  151.2672  143.6119 C   0  0  0  0  0  0  0  0  0  0  0  0
  136.5145  151.0780  142.4104 C   0  0  0  0  0  0  0  0  0  0  0  0
  137.1571  150.2834  141.5041 C   0  0  0  0  0  0  0  0  0  0  0  0
  136.1794  152.0171  144.6254 C   0  0  0  0  0  0  0  0  0  0  0  0
  135.2536  151.3326  145.3623 C   0  0  0  0  0  0  0  0  0  0  0  0
  134.4583  151.9766  146.4343 C   0  0  0  0  0  0  0  0  0  0  0  0
  1  2  2  0
  1  3  1  0
  2  4  1  0
  4  5  2  0
  3  6  1  0
  6  7  2  0
  5  8  1  0
  7  9  1  0
  9 10  2  0
  3 11  2  0
  5 11  1  0
 10 11  1  0
  9 12  1  0
 12 13  2  3
 13 14  1  0
M  END
$$$$

     RDKit          3D

 14 15  0  0  0  0  0  0  0  0999 V2000
  139.5550  150.5075  140.4438 C   0  0  0  0  0  0  0  0  0  0  0  0
  139.2165  150.0149  139.3725 C   0  0  0  0  0  0  0  0  0  0  0  0
  138.8581  150.3072  141.5852 C   0  0  0  0  0  0  0  0  0  0  0  0
  139.2270  150.3459  142.8891 C   0  0  0  0  0  0  0  0  0  0  0  0
  138.5608  151.2821  143.6742 C   0  0  0  0  0  0  0  0  0  0  0  0
  137.8570  149.4552  139.3184 C   0  0  0  0  0  0  0  0  0  0  0  0
  137.4753  151.5817  143.4203 C   0  0  0  0  0  0  0  0  0  0  0  0
  137.4378  150.1450  141.2520 C   0  0  0  0  0  0  0  0  0  0  0  0
  136.9984  149.6431  140.1530 C   0  0  0  0  0  0  0  0  0  0  0  0
  136.5284  150.7935  142.3687 C   0  0  0  0  0  0  0  0  0  0  0  0
  136.5910  152.4202  144.2134 C   0  0  0  0  0  0  0  0  0  0  0  0
  135.5780  152.1121  145.0263 C   0  0  0  0  0  0  0  0  0  0  0  0
  135.2000  150.9110  145.3264 C   0  0  0  0  0  0  0  0  0  0  0  0
  135.4319  153.2634  145.9329 C   0  0  0  0  0  0  0  0  0  0  0  0
  1  2  2  0
  1  3  1  0
  3  4  1  0
  4  5  2  0
  2  6  1  0
  5  7  1  0
  3  8  2  0
  6  9  2  0
  8  9  1  0
  7 10  1  0
  8 10  1  0
  7 11  2  3
 11 12  1  0
 12 13  1  0
 12 14  1  0
M  END
$$$$

     RDKit          3D

 14 14  0  0  0  0  0  0  0  0999 V2000
  140.3019  150.2145  139.4802 Cl  0  0  0  0  0  0  0  0  0  0  0  0
  138.6758  150.1820  140.5311 C   0  0  0  0  0  0  0  0  0  0  0  0
  137.6364  149.3800  140.0902 C   0  0  0  0  0  0  0  0  0  0  0  0
  137.5436  148.9622  138.7410 C   0  0  0  0  0  0  0  0  0  0  0  0
  138.4827  150.4324  141.7166 C   0  0  0  0  0  0  0  0  0  0  0  0
  136.4911  149.4153  140.9672 C   0  0  0  0  0  0  0  0  0  0  0  0
  137.3926  150.3484  142.5006 C   0  0  0  0  0  0  0  0  0  0  0  0
  137.3763  150.9557  143.9513 C   0  0  0  0  0  0  0  0  0  0  0  0
  135.2377  148.9772  140.1847 C   0  0  0  0  0  0  0  0  0  0  0  0
  136.4661  149.9619  142.0748 N   0  0  0  0  0  0  0  0  0  0  0  0
  138.5307  151.1478  144.6698 C   0  0  0  0  0  0  0  0  0  0  0  0
  136.2303  151.3885  144.6206 C   0  0  0  0  0  0  0  0  0  0  0  0
  136.3320  152.1257  145.6369 C   0  0  0  0  0  0  0  0  0  0  0  0
  135.1094  152.7816  146.2234 C   0  0  0  0  0  0  0  0  0  0  0  0
  1  2  1  0
  2  3  2  0
  3  4  1  0
  2  5  1  0
  3  6  1  0
  5  7  2  0
  7  8  1  0
  6  9  1  0
  6 10  2  0
  7 10  1  0
  8 11  2  0
  8 12  1  0
 12 13  2  3
 13 14  1  0
M  END
$$$$

     RDKit          3D

 14 15  0  0  0  0  0  0  0  0999 V2000
  139.0010  149.7643  140.3643 C   0  0  0  0  0  0  0  0  0  0  0  0
  138.7144  149.5449  139.1247 C   0  0  0  0  0  0  0  0  0  0  0  0
  138.1840  150.1020  141.2852 C   0  0  0  0  0  0  0  0  0  0  0  0
  139.6385  149.1413  138.0959 C   0  0  0  0  0  0  0  0  0  0  0  0
  136.6881  150.0305  141.1796 C   0  0  0  0  0  0  0  0  0  0  0  0
  135.7984  150.1278  142.2481 C   0  0  0  0  0  0  0  0  0  0  0  0
  136.4562  150.6806  143.3963 C   0  0  0  0  0  0  0  0  0  0  0  0
  135.7469  151.0481  144.6522 C   0  0  0  0  0  0  0  0  0  0  0  0
  136.1660  152.3400  145.2923 C   0  0  0  0  0  0  0  0  0  0  0  0
  135.2191  152.8828  146.2027 C   0  0  0  0  0  0  0  0  0  0  0  0
  137.7831  151.1455  143.8482 C   0  0  0  0  0  0  0  0  0  0  0  0
  138.0509  152.0664  144.8024 C   0  0  0  0  0  0  0  0  0  0  0  0
  138.7092  150.8194  142.6902 C   0  0  0  0  0  0  0  0  0  0  0  0
  137.4437  152.5483  145.5896 C   0  0  0  0  0  0  0  0  0  0  0  0
  1  2  2  3
  1  3  1  0
  2  4  1  0
  3  5  2  0
  5  6  1  0
  6  7  2  0
  7  8  1  0
  8  9  1  0
  9 10  1  0
  7 11  1  0
 11 12  1  0
  3 13  1  0
 11 13  1  0
  9 14  1  0
 12 14  2  0
M  END
$$$$

     RDKit          3D

 14 15  0  0  0  0  0  0  0  0999 V2000
  139.2620  151.0921  142.4039 C   0  0  0  0  0  0  0  0  0  0  0  0
  138.8618  152.1315  142.9023 C   0  0  0  0  0  0  0  0  0  0  0  0
  137.9130  151.7995  143.7812 C   0  0  0  0  0  0  0  0  0  0  0  0
  138.8259  150.3979  141.6057 C   0  0  0  0  0  0  0  0  0  0  0  0
  137.6638  149.9538  141.7688 C   0  0  0  0  0  0  0  0  0  0  0  0
  137.5091  152.6033  144.9557 C   0  0  0  0  0  0  0  0  0  0  0  0
  136.8131  150.7653  143.7756 C   0  0  0  0  0  0  0  0  0  0  0  0
  136.7050  150.0802  142.7142 C   0  0  0  0  0  0  0  0  0  0  0  0
  136.2312  152.8787  145.1974 C   0  0  0  0  0  0  0  0  0  0  0  0
  135.3045  151.8431  145.1497 C   0  0  0  0  0  0  0  0  0  0  0  0
  135.6157  150.6994  144.5219 C   0  0  0  0  0  0  0  0  0  0  0  0
  139.6647  150.0665  140.3637 C   0  0  0  0  0  0  0  0  0  0  0  0
  139.0738  150.0170  139.1812 C   0  0  0  0  0  0  0  0  0  0  0  0
  140.9398  150.5550  140.4574 C   0  0  0  0  0  0  0  0  0  0  0  0
  1  2  1  0
  2  3  2  0
  1  4  2  0
  4  5  1  0
  3  6  1  0
  3  7  1  0
  5  8  1  0
  7  8  1  0
  6  9  2  0
  9 10  1  0
  7 11  2  0
 10 11  1  0
  4 12  1  0
 12 13  1  0
 12 14  2  0
M  END
$$$$

     RDKit          3D

 14 15  0  0  0  0  0  0  0  0999 V2000
  138.9697  151.3146  142.5684 C   0  0  0  0  0  0  0  0  0  0  0  0
  138.6018  152.0883  143.2657 C   0  0  0  0  0  0  0  0  0  0  0  0
  137.6374  151.6902  144.0814 C   0  0  0  0  0  0  0  0  0  0  0  0
  140.0289  151.3257  141.4197 C   0  0  0  0  0  0  0  0  0  0  0  0
  137.1948  150.3123  143.8930 C   0  0  0  0  0  0  0  0  0  0  0  0
  139.8113  150.4471  140.2754 C   0  0  0  0  0  0  0  0  0  0  0  0
  138.3589  149.9782  142.3814 C   0  0  0  0  0  0  0  0  0  0  0  0
  136.9986  152.5640  145.1732 C   0  0  0  0  0  0  0  0  0  0  0  0
  139.0500  149.5399  140.1678 C   0  0  0  0  0  0  0  0  0  0  0  0
  138.1751  149.3630  141.3986 C   0  0  0  0  0  0  0  0  0  0  0  0
  140.7446  150.8612  139.2213 C   0  0  0  0  0  0  0  0  0  0  0  0
  137.5030  149.6282  143.4208 N   0  0  0  0  0  0  0  0  0  0  0  0
  137.0224  149.4956  144.3244 C   0  0  0  0  0  0  0  0  0  0  0  0
  136.4952  150.2417  145.2015 C   0  0  0  0  0  0  0  0  0  0  0  0
  1  2  1  0
  2  3  2  0
  1  4  1  0
  3  5  1  0
  4  6  1  0
  1  7  2  0
  3  8  1  0
  6  9  1  0
  7 10  1  0
  9 10  2  0
  6 11  2  0
  7 12  1  0
 12 13  1  0
  5 14  1  0
 13 14  1  0
M  END
$$$$

     RDKit          3D

 14 15  0  0  0  0  0  0  0  0999 V2000
  139.5550  150.5075  140.4438 C   0  0  0  0  0  0  0  0  0  0  0  0
  139.2165  150.0149  139.3725 C   0  0  0  0  0  0  0  0  0  0  0  0
  138.8581  150.3072  141.5852 C   0  0  0  0  0  0  0  0  0  0  0  0
  139.2270  150.3459  142.8891 C   0  0  0  0  0  0  0  0  0  0  0  0
  138.5608  151.2821  143.6742 C   0  0  0  0  0  0  0  0  0  0  0  0
  137.8570  149.4552  139.3184 C   0  0  0  0  0  0  0  0  0  0  0  0
  137.3188  148.9492  138.1191 C   0  0  0  0  0  0  0  0  0  0  0  0
  137.4559  151.5660  143.4421 C   0  0  0  0  0  0  0  0  0  0  0  0
  136.7226  152.4686  144.4558 C   0  0  0  0  0  0  0  0  0  0  0  0
  136.9013  150.9868  142.2674 C   0  0  0  0  0  0  0  0  0  0  0  0
  137.5835  150.3702  141.4706 C   0  0  0  0  0  0  0  0  0  0  0  0
  136.6805  149.7995  140.4937 C   0  0  0  0  0  0  0  0  0  0  0  0
  137.1980  153.7031  144.7627 C   0  0  0  0  0  0  0  0  0  0  0  0
  135.5504  151.9902  144.9667 C   0  0  0  0  0  0  0  0  0  0  0  0
  1  2  2  0
  1  3  1  0
  3  4  1  0
  4  5  2  0
  2  6  1  0
  6  7  1  0
  5  8  1  0
  8  9  1  0
  8 10  2  0
  3 11  2  0
 10 11  1  0
  6 12  2  0
 11 12  1  0
  9 13  2  0
  9 14  1  0
M  END
$$$$

     RDKit          3D

 14 15  0  0  0  0  0  0  0  0999 V2000
  138.9697  151.3146  142.5684 C   0  0  0  0  0  0  0  0  0  0  0  0
  138.6018  152.0883  143.2657 C   0  0  0  0  0  0  0  0  0  0  0  0
  137.5210  151.7905  144.2146 C   0  0  0  0  0  0  0  0  0  0  0  0
  139.9450  151.4362  141.4348 C   0  0  0  0  0  0  0  0  0  0  0  0
  137.4509  150.5150  144.7895 C   0  0  0  0  0  0  0  0  0  0  0  0
  139.6483  150.6881  140.3006 C   0  0  0  0  0  0  0  0  0  0  0  0
  138.5290  149.9149  140.3372 C   0  0  0  0  0  0  0  0  0  0  0  0
  137.6578  149.7051  141.5159 C   0  0  0  0  0  0  0  0  0  0  0  0
  138.0468  150.4771  142.6111 C   0  0  0  0  0  0  0  0  0  0  0  0
  136.4796  152.5504  144.4594 C   0  0  0  0  0  0  0  0  0  0  0  0
  137.4723  150.1130  143.7827 N   0  0  0  0  0  0  0  0  0  0  0  0
  140.7199  150.6556  139.1060 Cl  0  0  0  0  0  0  0  0  0  0  0  0
  135.5505  152.5720  145.5347 C   0  0  0  0  0  0  0  0  0  0  0  0
  134.5053  153.3289  145.6473 C   0  0  0  0  0  0  0  0  0  0  0  0
  1  2  2  0
  2  3  1  0
  1  4  1  0
  3  5  2  0
  4  6  2  0
  6  7  1  0
  7  8  2  0
  1  9  1  0
  8  9  1  0
  3 10  1  0
  5 11  1  0
  9 11  2  0
  6 12  1  0
 10 13  1  0
 13 14  1  0
M  END
$$$$

     RDKit          3D

 14 15  0  0  0  0  0  0  0  0999 V2000
  138.9697  151.3146  142.5684 C   0  0  0  0  0  0  0  0  0  0  0  0
  138.6018  152.0883  143.2657 C   0  0  0  0  0  0  0  0  0  0  0  0
  137.6374  151.6902  144.0814 C   0  0  0  0  0  0  0  0  0  0  0  0
  140.0289  151.3257  141.4197 C   0  0  0  0  0  0  0  0  0  0  0  0
  137.1948  150.3123  143.8930 C   0  0  0  0  0  0  0  0  0  0  0  0
  139.8113  150.4471  140.2754 C   0  0  0  0  0  0  0  0  0  0  0  0
  138.3589  149.9782  142.3814 C   0  0  0  0  0  0  0  0  0  0  0  0
  136.9986  152.5640  145.1732 C   0  0  0  0  0  0  0  0  0  0  0  0
  139.0500  149.5399  140.1678 C   0  0  0  0  0  0  0  0  0  0  0  0
  138.1751  149.3630  141.3986 C   0  0  0  0  0  0  0  0  0  0  0  0
  137.5416  149.6279  143.4570 N   0  0  0  0  0  0  0  0  0  0  0  0
  140.8159  150.8676  139.3122 C   0  0  0  0  0  0  0  0  0  0  0  0
  135.7119  150.8170  144.3984 C   0  0  0  0  0  0  0  0  0  0  0  0
  135.8430  152.2810  145.1426 C   0  0  0  0  0  0  0  0  0  0  0  0
  1  2  1  0
  2  3  2  3
  1  4  1  0
  3  5  1  0
  4  6  1  0
  1  7  2  0
  3  8  1  0
  6  9  1  0
  7 10  1  0
  9 10  2  0
  7 11  1  0
  6 12  2  0
  5 13  2  0
  8 14  2  0
 13 14  1  0
M  END
$$$$

     RDKit          3D

 14 15  0  0  0  0  0  0  0  0999 V2000
  139.5550  150.5075  140.4438 C   0  0  0  0  0  0  0  0  0  0  0  0
  139.2165  150.0149  139.3725 C   0  0  0  0  0  0  0  0  0  0  0  0
  138.8581  150.3072  141.5852 C   0  0  0  0  0  0  0  0  0  0  0  0
  139.2270  150.3459  142.8891 C   0  0  0  0  0  0  0  0  0  0  0  0
  138.5608  151.2821  143.6742 C   0  0  0  0  0  0  0  0  0  0  0  0
  137.8570  149.4552  139.3184 C   0  0  0  0  0  0  0  0  0  0  0  0
  137.4753  151.5817  143.4203 C   0  0  0  0  0  0  0  0  0  0  0  0
  137.4378  150.1450  141.2520 C   0  0  0  0  0  0  0  0  0  0  0  0
  136.9984  149.6431  140.1530 C   0  0  0  0  0  0  0  0  0  0  0  0
  136.5284  150.7935  142.3687 C   0  0  0  0  0  0  0  0  0  0  0  0
  136.5910  152.4202  144.2134 C   0  0  0  0  0  0  0  0  0  0  0  0
  135.5780  152.1121  145.0263 C   0  0  0  0  0  0  0  0  0  0  0  0
  135.2000  150.9110  145.3264 C   0  0  0  0  0  0  0  0  0  0  0  0
  135.1350  153.2443  145.9629 C   0  0  0  0  0  0  0  0  0  0  0  0
  1  2  2  0
  1  3  1  0
  3  4  1  0
  4  5  2  0
  2  6  1  0
  5  7  1  0
  3  8  2  0
  6  9  2  0
  8  9  1  0
  7 10  1  0
  8 10  1  0
  7 11  2  3
 11 12  1  0
 12 13  2  0
 12 14  1  0
M  END
$$$$

     RDKit          3D

 14 15  0  0  0  0  0  0  0  0999 V2000
  140.3019  150.2145  139.4802 Cl  0  0  0  0  0  0  0  0  0  0  0  0
  138.6758  150.1820  140.5311 C   0  0  0  0  0  0  0  0  0  0  0  0
  137.6364  149.3800  140.0902 C   0  0  0  0  0  0  0  0  0  0  0  0
  138.7704  150.9236  141.6515 C   0  0  0  0  0  0  0  0  0  0  0  0
  138.1279  150.9106  142.4389 C   0  0  0  0  0  0  0  0  0  0  0  0
  136.6301  149.5529  140.9768 C   0  0  0  0  0  0  0  0  0  0  0  0
  138.2520  151.5891  143.8343 C   0  0  0  0  0  0  0  0  0  0  0  0
  135.2962  149.1029  140.6962 C   0  0  0  0  0  0  0  0  0  0  0  0
  137.1901  151.7567  144.6952 C   0  0  0  0  0  0  0  0  0  0  0  0
  136.0720  151.0250  144.2022 C   0  0  0  0  0  0  0  0  0  0  0  0
  134.9491  151.2497  145.1214 C   0  0  0  0  0  0  0  0  0  0  0  0
  136.8213  150.3084  142.1784 C   0  0  0  0  0  0  0  0  0  0  0  0
  135.7479  150.4662  143.1408 N   0  0  0  0  0  0  0  0  0  0  0  0
  134.3729  150.5874  145.7555 O   0  0  0  0  0  0  0  0  0  0  0  0
  1  2  1  0
  2  3  1  0
  2  4  2  0
  4  5  1  0
  3  6  2  0
  5  7  1  0
  6  8  1  0
  7  9  2  0
  9 10  1  0
 10 11  1  0
  5 12  2  0
  6 12  1  0
 10 13  2  0
 12 13  1  0
 11 14  2  0
M  END
$$$$

     RDKit          3D

 14 15  0  0  0  0  0  0  0  0999 V2000
  140.3019  150.2145  139.4802 Cl  0  0  0  0  0  0  0  0  0  0  0  0
  138.6758  150.1820  140.5311 C   0  0  0  0  0  0  0  0  0  0  0  0
  137.6364  149.3800  140.0902 C   0  0  0  0  0  0  0  0  0  0  0  0
  136.4360  149.4525  140.8154 C   0  0  0  0  0  0  0  0  0  0  0  0
  138.9773  150.6955  141.6819 C   0  0  0  0  0  0  0  0  0  0  0  0
  136.5018  150.3461  141.8117 C   0  0  0  0  0  0  0  0  0  0  0  0
  135.2689  150.6056  142.7086 C   0  0  0  0  0  0  0  0  0  0  0  0
  135.7271  151.2590  143.9921 C   0  0  0  0  0  0  0  0  0  0  0  0
  137.7105  150.8860  142.4731 C   0  0  0  0  0  0  0  0  0  0  0  0
  134.9882  151.8604  144.9274 C   0  0  0  0  0  0  0  0  0  0  0  0
  137.6712  151.4749  143.8152 C   0  0  0  0  0  0  0  0  0  0  0  0
  135.4578  152.2772  146.0087 C   0  0  0  0  0  0  0  0  0  0  0  0
  136.6158  152.0515  146.6196 O   0  0  0  0  0  0  0  0  0  0  0  0
  134.6812  153.2269  146.9191 C   0  0  0  0  0  0  0  0  0  0  0  0
  1  2  1  0
  2  3  2  0
  3  4  1  0
  2  5  1  0
  4  6  2  0
  6  7  1  0
  7  8  1  0
  5  9  2  0
  6  9  1  0
  8 10  2  3
  8 11  1  0
  9 11  1  0
 10 12  1  0
 12 13  2  0
 12 14  1  0
M  END
$$$$

     RDKit          3D

 14 15  0  0  0  0  0  0  0  0999 V2000
  139.5550  150.5075  140.4438 C   0  0  0  0  0  0  0  0  0  0  0  0
  139.2165  150.0149  139.3725 C   0  0  0  0  0  0  0  0  0  0  0  0
  138.8581  150.3072  141.5852 C   0  0  0  0  0  0  0  0  0  0  0  0
  139.2270  150.3459  142.8891 C   0  0  0  0  0  0  0  0  0  0  0  0
  138.5608  151.2821  143.6742 C   0  0  0  0  0  0  0  0  0  0  0  0
  137.8570  149.4552  139.3184 C   0  0  0  0  0  0  0  0  0  0  0  0
  137.4753  151.5817  143.4203 C   0  0  0  0  0  0  0  0  0  0  0  0
  137.3786  148.8877  138.1379 C   0  0  0  0  0  0  0  0  0  0  0  0
  136.7351  152.5036  144.4173 C   0  0  0  0  0  0  0  0  0  0  0  0
  137.4806  150.0694  141.2329 C   0  0  0  0  0  0  0  0  0  0  0  0
  137.0073  149.6820  140.3588 C   0  0  0  0  0  0  0  0  0  0  0  0
  135.5833  152.1007  145.1002 C   0  0  0  0  0  0  0  0  0  0  0  0
  135.6828  151.0478  145.9676 C   0  0  0  0  0  0  0  0  0  0  0  0
  136.7471  150.5990  142.6033 C   0  0  0  0  0  0  0  0  0  0  0  0
  1  2  2  0
  1  3  1  0
  3  4  1  0
  4  5  2  0
  2  6  1  0
  5  7  1  0
  6  8  1  0
  7  9  1  0
  3 10  2  0
  6 11  2  0
 10 11  1  0
  9 12  2  3
 12 13  1  0
  7 14  1  0
 10 14  1  0
M  END
$$$$

     RDKit          3D

 14 15  0  0  0  0  0  0  0  0999 V2000
  138.7086  151.1469  142.6266 C   0  0  0  0  0  0  0  0  0  0  0  0
  138.5250  151.9368  143.5112 C   0  0  0  0  0  0  0  0  0  0  0  0
  137.3811  151.6572  144.3961 C   0  0  0  0  0  0  0  0  0  0  0  0
  139.7008  151.1089  141.6121 C   0  0  0  0  0  0  0  0  0  0  0  0
  136.7115  150.4275  144.0247 C   0  0  0  0  0  0  0  0  0  0  0  0
  139.4933  150.4714  140.3262 C   0  0  0  0  0  0  0  0  0  0  0  0
  138.3034  149.7102  140.4068 C   0  0  0  0  0  0  0  0  0  0  0  0
  137.7401  150.0401  142.1735 C   0  0  0  0  0  0  0  0  0  0  0  0
  137.4409  149.5039  141.3032 C   0  0  0  0  0  0  0  0  0  0  0  0
  136.8500  149.8315  143.2580 N   0  0  0  0  0  0  0  0  0  0  0  0
  135.8225  150.8770  145.4960 C   0  0  0  0  0  0  0  0  0  0  0  0
  140.5471  150.6878  139.4365 C   0  0  0  0  0  0  0  0  0  0  0  0
  137.3688  152.7908  145.3734 C   0  0  0  0  0  0  0  0  0  0  0  0
  136.1261  152.2981  146.0966 C   0  0  0  0  0  0  0  0  0  0  0  0
  1  2  1  0
  2  3  2  3
  1  4  1  0
  3  5  1  0
  4  6  2  0
  6  7  1  0
  1  8  2  0
  7  9  2  0
  8  9  1  0
  8 10  1  0
  5 11  1  0
  6 12  1  0
  3 13  1  0
 11 14  1  0
 13 14  2  0
M  END
$$$$

     RDKit          3D

 14 15  0  0  0  0  0  0  0  0999 V2000
  139.3428  149.9936  140.5898 C   0  0  0  0  0  0  0  0  0  0  0  0
  138.9752  149.9369  139.3605 C   0  0  0  0  0  0  0  0  0  0  0  0
  138.5862  150.0774  141.6376 C   0  0  0  0  0  0  0  0  0  0  0  0
  137.2156  149.9043  141.8335 C   0  0  0  0  0  0  0  0  0  0  0  0
  136.5021  149.8247  140.5813 C   0  0  0  0  0  0  0  0  0  0  0  0
  139.1845  150.3562  143.1502 C   0  0  0  0  0  0  0  0  0  0  0  0
  138.3557  151.1252  143.9047 C   0  0  0  0  0  0  0  0  0  0  0  0
  137.0207  151.0827  143.8126 C   0  0  0  0  0  0  0  0  0  0  0  0
  136.3312  150.5156  142.9530 C   0  0  0  0  0  0  0  0  0  0  0  0
  137.3868  149.6600  139.3289 C   0  0  0  0  0  0  0  0  0  0  0  0
  136.1943  151.8478  145.0738 C   0  0  0  0  0  0  0  0  0  0  0  0
  134.9741  151.3835  145.3612 C   0  0  0  0  0  0  0  0  0  0  0  0
  134.3296  150.2831  144.8587 C   0  0  0  0  0  0  0  0  0  0  0  0
  134.4048  152.3133  146.4357 C   0  0  0  0  0  0  0  0  0  0  0  0
  1  2  2  0
  1  3  1  0
  3  4  1  0
  4  5  2  0
  3  6  1  0
  6  7  2  0
  7  8  1  0
  4  9  1  0
  8  9  2  0
  2 10  1  0
  5 10  1  0
  8 11  1  0
 11 12  2  3
 12 13  1  0
 12 14  1  0
M  END
$$$$

     RDKit          3D

 14 15  0  0  0  0  0  0  0  0999 V2000
  138.7086  151.1469  142.6266 C   0  0  0  0  0  0  0  0  0  0  0  0
  138.5250  151.9368  143.5112 C   0  0  0  0  0  0  0  0  0  0  0  0
  137.3811  151.6572  144.3961 C   0  0  0  0  0  0  0  0  0  0  0  0
  139.7008  151.1089  141.6121 C   0  0  0  0  0  0  0  0  0  0  0  0
  136.7115  150.4275  144.0247 C   0  0  0  0  0  0  0  0  0  0  0  0
  139.4933  150.4714  140.3262 C   0  0  0  0  0  0  0  0  0  0  0  0
  138.3034  149.7102  140.4068 C   0  0  0  0  0  0  0  0  0  0  0  0
  137.7401  150.0401  142.1735 C   0  0  0  0  0  0  0  0  0  0  0  0
  137.4409  149.5039  141.3032 C   0  0  0  0  0  0  0  0  0  0  0  0
  136.8500  149.8315  143.2580 N   0  0  0  0  0  0  0  0  0  0  0  0
  135.8225  150.8770  145.4960 C   0  0  0  0  0  0  0  0  0  0  0  0
  140.6423  150.7085  139.3488 C   0  0  0  0  0  0  0  0  0  0  0  0
  137.3704  152.7905  145.3741 C   0  0  0  0  0  0  0  0  0  0  0  0
  136.1260  152.2994  146.0970 C   0  0  0  0  0  0  0  0  0  0  0  0
  1  2  1  0
  2  3  2  3
  1  4  1  0
  3  5  1  0
  4  6  2  0
  6  7  1  0
  1  8  2  0
  7  9  2  0
  8  9  1  0
  8 10  1  0
  5 11  1  0
  6 12  1  0
  3 13  1  0
 11 14  1  0
 13 14  1  0
M  END
$$$$

     RDKit          3D

 14 15  0  0  0  0  0  0  0  0999 V2000
  139.2620  151.0921  142.4039 C   0  0  0  0  0  0  0  0  0  0  0  0
  138.8618  152.1315  142.9023 C   0  0  0  0  0  0  0  0  0  0  0  0
  137.9130  151.7995  143.7812 C   0  0  0  0  0  0  0  0  0  0  0  0
  138.8259  150.3979  141.6057 C   0  0  0  0  0  0  0  0  0  0  0  0
  137.6638  149.9538  141.7688 C   0  0  0  0  0  0  0  0  0  0  0  0
  137.5091  152.6033  144.9557 C   0  0  0  0  0  0  0  0  0  0  0  0
  136.8131  150.7653  143.7756 C   0  0  0  0  0  0  0  0  0  0  0  0
  136.7050  150.0802  142.7142 C   0  0  0  0  0  0  0  0  0  0  0  0
  136.2312  152.8787  145.1974 C   0  0  0  0  0  0  0  0  0  0  0  0
  135.3045  151.8431  145.1497 C   0  0  0  0  0  0  0  0  0  0  0  0
  135.6632  150.7948  144.6314 C   0  0  0  0  0  0  0  0  0  0  0  0
  139.6703  150.0647  140.3515 C   0  0  0  0  0  0  0  0  0  0  0  0
  139.0723  150.0183  139.1784 C   0  0  0  0  0  0  0  0  0  0  0  0
  140.9346  150.5741  140.4575 C   0  0  0  0  0  0  0  0  0  0  0  0
  1  2  1  0
  2  3  2  0
  1  4  2  0
  4  5  1  0
  3  6  1  0
  3  7  1  0
  5  8  1  0
  7  8  1  0
  6  9  2  0
  9 10  1  0
  7 11  2  0
 10 11  2  0
  4 12  1  0
 12 13  1  0
 12 14  2  0
M  END
$$$$

     RDKit          3D

 14 15  0  0  0  0  0  0  0  0999 V2000
  139.0010  149.7643  140.3643 C   0  0  0  0  0  0  0  0  0  0  0  0
  138.7144  149.5449  139.1247 C   0  0  0  0  0  0  0  0  0  0  0  0
  138.1840  150.1020  141.2852 C   0  0  0  0  0  0  0  0  0  0  0  0
  137.3200  149.5871  138.6815 C   0  0  0  0  0  0  0  0  0  0  0  0
  136.4668  149.5647  139.6600 C   0  0  0  0  0  0  0  0  0  0  0  0
  138.6203  150.4924  142.6513 C   0  0  0  0  0  0  0  0  0  0  0  0
  137.7616  150.9851  143.6296 C   0  0  0  0  0  0  0  0  0  0  0  0
  136.4770  150.9768  143.2092 C   0  0  0  0  0  0  0  0  0  0  0  0
  135.5254  151.4160  144.2399 C   0  0  0  0  0  0  0  0  0  0  0  0
  136.7403  150.0044  140.9819 C   0  0  0  0  0  0  0  0  0  0  0  0
  136.1703  150.4248  142.0385 N   0  0  0  0  0  0  0  0  0  0  0  0
  135.4459  151.0262  145.3626 C   0  0  0  0  0  0  0  0  0  0  0  0
  136.4766  150.2847  146.0003 C   0  0  0  0  0  0  0  0  0  0  0  0
  134.4290  151.5740  146.3396 C   0  0  0  0  0  0  0  0  0  0  0  0
  1  2  2  0
  1  3  1  0
  2  4  1  0
  4  5  2  0
  3  6  1  0
  6  7  2  0
  7  8  1  0
  8  9  1  0
  3 10  2  0
  5 10  1  0
  8 11  2  0
 10 11  1  0
  9 12  2  3
 12 13  1  0
 12 14  1  0
M  END
$$$$
