
     RDKit          3D

  9  9  0  0  0  0  0  0  0  0999 V2000
  140.3038  150.2150  139.4785 Cl  0  0  0  0  0  0  0  0  0  0  0  0
  138.6786  150.1874  140.5317 C   0  0  0  0  0  0  0  0  0  0  0  0
  137.6385  149.3840  140.0946 C   0  0  0  0  0  0  0  0  0  0  0  0
  139.2404  150.7160  141.5759 C   0  0  0  0  0  0  0  0  0  0  0  0
  138.3592  151.0512  142.3776 C   0  0  0  0  0  0  0  0  0  0  0  0
  136.5132  149.6320  140.9989 C   0  0  0  0  0  0  0  0  0  0  0  0
  138.6485  151.8145  143.7097 C   0  0  0  0  0  0  0  0  0  0  0  0
  135.2230  149.4126  140.8574 C   0  0  0  0  0  0  0  0  0  0  0  0
  136.9558  150.5500  142.4468 C   0  0  0  0  0  0  0  0  0  0  0  0
  1  2  1  0
  2  3  1  0
  2  4  2  0
  4  5  1  0
  3  6  2  0
  5  7  1  0
  6  8  1  0
  5  9  2  0
  6  9  1  0
M  END
$$$$
