
     RDKit          3D

  9  9  0  0  0  0  0  0  0  0999 V2000
  140.3038  150.2150  139.4785 Cl  0  0  0  0  0  0  0  0  0  0  0  0
  138.6786  150.1874  140.5317 C   0  0  0  0  0  0  0  0  0  0  0  0
  137.6385  149.3840  140.0946 C   0  0  0  0  0  0  0  0  0  0  0  0
  138.7732  150.9300  141.6509 C   0  0  0  0  0  0  0  0  0  0  0  0
  138.1259  150.9095  142.4414 C   0  0  0  0  0  0  0  0  0  0  0  0
  136.8263  150.0689  142.3038 C   0  0  0  0  0  0  0  0  0  0  0  0
  137.4424  148.8411  138.8938 C   0  0  0  0  0  0  0  0  0  0  0  0
  138.1148  151.5124  144.1652 Cl  0  0  0  0  0  0  0  0  0  0  0  0
  136.4916  149.4964  141.0976 C   0  0  0  0  0  0  0  0  0  0  0  0
  1  2  1  0
  2  3  1  0
  2  4  2  0
  4  5  1  0
  5  6  2  0
  3  7  1  0
  5  8  1  0
  3  9  2  0
  6  9  1  0
M  END
$$$$
