
     RDKit          3D

 11 11  0  0  0  0  0  0  0  0999 V2000
  140.3038  150.2150  139.4785 Cl  0  0  0  0  0  0  0  0  0  0  0  0
  138.6786  150.1874  140.5317 C   0  0  0  0  0  0  0  0  0  0  0  0
  137.6385  149.3840  140.0946 C   0  0  0  0  0  0  0  0  0  0  0  0
  139.0347  150.8837  141.6176 C   0  0  0  0  0  0  0  0  0  0  0  0
  136.4870  149.4739  141.0114 C   0  0  0  0  0  0  0  0  0  0  0  0
  136.6060  150.3319  142.1494 C   0  0  0  0  0  0  0  0  0  0  0  0
  135.4599  150.4857  143.0766 C   0  0  0  0  0  0  0  0  0  0  0  0
  135.8731  151.2537  144.3106 C   0  0  0  0  0  0  0  0  0  0  0  0
  134.8714  151.8852  145.0898 C   0  0  0  0  0  0  0  0  0  0  0  0
  135.3458  152.8952  146.1432 C   0  0  0  0  0  0  0  0  0  0  0  0
  137.9119  150.9617  142.4292 C   0  0  0  0  0  0  0  0  0  0  0  0
  1  2  1  0
  2  3  2  0
  2  4  1  0
  3  5  1  0
  5  6  2  0
  6  7  1  0
  7  8  1  0
  8  9  1  0
  9 10  1  0
  4 11  2  0
  6 11  1  0
M  END
$$$$
