
     RDKit          3D

 11 11  0  0  0  0  0  0  0  0999 V2000
  138.9705  151.3131  142.5679 C   0  0  0  0  0  0  0  0  0  0  0  0
  138.6042  152.0888  143.2654 C   0  0  0  0  0  0  0  0  0  0  0  0
  137.6600  151.8318  144.0475 C   0  0  0  0  0  0  0  0  0  0  0  0
  136.5825  152.7511  144.5734 C   0  0  0  0  0  0  0  0  0  0  0  0
  135.5827  152.5121  145.5093 C   0  0  0  0  0  0  0  0  0  0  0  0
  139.9322  151.4080  141.3737 C   0  0  0  0  0  0  0  0  0  0  0  0
  135.6283  151.0416  145.7979 C   0  0  0  0  0  0  0  0  0  0  0  0
  137.2301  150.4558  144.6296 C   0  0  0  0  0  0  0  0  0  0  0  0
  139.6769  150.6734  140.2596 C   0  0  0  0  0  0  0  0  0  0  0  0
  136.3633  150.1384  145.4714 C   0  0  0  0  0  0  0  0  0  0  0  0
  140.6225  150.2452  139.3772 C   0  0  0  0  0  0  0  0  0  0  0  0
  1  2  2  3
  2  3  1  0
  3  4  1  0
  4  5  2  0
  1  6  1  0
  5  7  1  0
  3  8  2  0
  6  9  1  0
  7 10  2  0
  8 10  1  0
  9 11  1  0
M  END
$$$$
