
     RDKit          3D

 11 11  0  0  0  0  0  0  0  0999 V2000
  140.3038  150.2150  139.4785 Cl  0  0  0  0  0  0  0  0  0  0  0  0
  138.6786  150.1874  140.5317 C   0  0  0  0  0  0  0  0  0  0  0  0
  137.6385  149.3840  140.0946 C   0  0  0  0  0  0  0  0  0  0  0  0
  137.5435  148.9630  138.7458 C   0  0  0  0  0  0  0  0  0  0  0  0
  138.4874  150.4382  141.7160 C   0  0  0  0  0  0  0  0  0  0  0  0
  137.4116  150.4246  142.5549 C   0  0  0  0  0  0  0  0  0  0  0  0
  136.4512  149.4738  140.9083 C   0  0  0  0  0  0  0  0  0  0  0  0
  136.3378  149.9387  142.1014 C   0  0  0  0  0  0  0  0  0  0  0  0
  137.4606  151.1352  144.0652 C   0  0  0  0  0  0  0  0  0  0  0  0
  136.3691  151.6647  144.5441 C   0  0  0  0  0  0  0  0  0  0  0  0
  136.1991  151.8143  146.0045 C   0  0  0  0  0  0  0  0  0  0  0  0
  1  2  1  0
  2  3  2  0
  3  4  1  0
  2  5  1  0
  5  6  2  0
  3  7  1  0
  6  8  1  0
  7  8  2  0
  6  9  1  0
  9 10  1  0
 10 11  1  0
M  END
$$$$
