
     RDKit          3D

 11 12  0  0  0  0  0  0  0  0999 V2000
  138.7090  151.1480  142.6270 C   0  0  0  0  0  0  0  0  0  0  0  0
  138.5232  151.9372  143.5110 C   0  0  0  0  0  0  0  0  0  0  0  0
  137.3801  151.6562  144.3958 C   0  0  0  0  0  0  0  0  0  0  0  0
  139.7036  151.1026  141.6212 C   0  0  0  0  0  0  0  0  0  0  0  0
  136.7239  150.4190  144.0179 C   0  0  0  0  0  0  0  0  0  0  0  0
  137.9015  150.0241  142.3223 C   0  0  0  0  0  0  0  0  0  0  0  0
  138.2278  149.2932  141.1442 C   0  0  0  0  0  0  0  0  0  0  0  0
  136.9445  149.6821  143.0247 C   0  0  0  0  0  0  0  0  0  0  0  0
  137.0946  152.5090  145.4858 O   0  0  0  0  0  0  0  0  0  0  0  0
  136.5821  153.7251  145.1166 C   0  0  0  0  0  0  0  0  0  0  0  0
  139.4045  149.9495  140.5201 C   0  0  0  0  0  0  0  0  0  0  0  0
  1  2  1  0
  2  3  2  0
  1  4  1  0
  3  5  1  0
  1  6  2  0
  6  7  1  0
  5  8  2  0
  6  8  1  0
  3  9  1  0
  9 10  1  0
  4 11  2  0
  7 11  2  0
M  END
$$$$
