
     RDKit          3D

 12 13  0  0  0  0  0  0  0  0999 V2000
  139.2621  151.0930  142.4042 C   0  0  0  0  0  0  0  0  0  0  0  0
  138.8616  152.1304  142.9039 C   0  0  0  0  0  0  0  0  0  0  0  0
  137.7832  151.8907  143.8937 C   0  0  0  0  0  0  0  0  0  0  0  0
  137.3598  150.5392  144.0619 C   0  0  0  0  0  0  0  0  0  0  0  0
  136.3242  150.4631  145.1222 C   0  0  0  0  0  0  0  0  0  0  0  0
  139.2678  149.7545  142.8033 C   0  0  0  0  0  0  0  0  0  0  0  0
  137.9644  149.6082  143.5715 C   0  0  0  0  0  0  0  0  0  0  0  0
  140.1262  151.3391  140.9873 C   0  0  0  0  0  0  0  0  0  0  0  0
  135.7291  151.6076  145.4204 C   0  0  0  0  0  0  0  0  0  0  0  0
  137.2235  152.9202  144.6668 C   0  0  0  0  0  0  0  0  0  0  0  0
  136.1779  152.7612  145.5181 C   0  0  0  0  0  0  0  0  0  0  0  0
  135.6859  153.8525  146.0603 O   0  0  0  0  0  0  0  0  0  0  0  0
  1  2  1  0
  2  3  2  0
  3  4  1  0
  4  5  2  0
  1  6  1  0
  4  7  1  0
  6  7  2  0
  1  8  1  0
  5  9  1  0
  3 10  1  0
  9 11  1  0
 10 11  1  0
 11 12  2  0
M  END
$$$$
