
     RDKit          3D

  9  9  0  0  0  0  0  0  0  0999 V2000
  139.0013  149.7640  140.3646 C   0  0  0  0  0  0  0  0  0  0  0  0
  139.7636  150.8550  140.7369 C   0  0  0  0  0  0  0  0  0  0  0  0
  139.2619  149.1449  139.1763 C   0  0  0  0  0  0  0  0  0  0  0  0
  139.5458  151.5170  142.0091 C   0  0  0  0  0  0  0  0  0  0  0  0
  138.4620  150.9910  142.6961 C   0  0  0  0  0  0  0  0  0  0  0  0
  137.9087  149.5380  141.2374 C   0  0  0  0  0  0  0  0  0  0  0  0
  136.9894  148.5324  140.6111 C   0  0  0  0  0  0  0  0  0  0  0  0
  137.6865  150.0877  142.3762 C   0  0  0  0  0  0  0  0  0  0  0  0
  138.2914  151.8060  144.2444 C   0  0  0  0  0  0  0  0  0  0  0  0
  1  2  2  0
  1  3  1  0
  2  4  1  0
  4  5  2  0
  1  6  1  0
  6  7  1  0
  5  8  1  0
  6  8  2  0
  5  9  1  0
M  END
$$$$
