
     RDKit          3D

 12 13  0  0  0  0  0  0  0  0999 V2000
  138.7090  151.1480  142.6270 C   0  0  0  0  0  0  0  0  0  0  0  0
  138.5232  151.9372  143.5110 C   0  0  0  0  0  0  0  0  0  0  0  0
  137.3801  151.6562  144.3958 C   0  0  0  0  0  0  0  0  0  0  0  0
  139.7036  151.1026  141.6212 C   0  0  0  0  0  0  0  0  0  0  0  0
  136.7239  150.4190  144.0179 C   0  0  0  0  0  0  0  0  0  0  0  0
  137.9015  150.0241  142.3223 C   0  0  0  0  0  0  0  0  0  0  0  0
  138.2278  149.2932  141.1442 C   0  0  0  0  0  0  0  0  0  0  0  0
  135.6391  150.1367  145.0898 C   0  0  0  0  0  0  0  0  0  0  0  0
  139.6548  150.4031  140.4831 C   0  0  0  0  0  0  0  0  0  0  0  0
  136.8422  149.6544  143.0389 N   0  0  0  0  0  0  0  0  0  0  0  0
  138.9727  149.4041  140.2674 C   0  0  0  0  0  0  0  0  0  0  0  0
  140.9056  151.0041  139.2436 Cl  0  0  0  0  0  0  0  0  0  0  0  0
  1  2  1  0
  2  3  2  0
  1  4  1  0
  3  5  1  0
  1  6  2  0
  6  7  1  0
  5  8  1  0
  4  9  2  0
  5 10  2  0
  6 10  1  0
  7 11  2  0
  9 11  1  0
  9 12  1  0
M  END
$$$$
