
     RDKit          3D

 12 13  0  0  0  0  0  0  0  0999 V2000
  140.3038  150.2150  139.4785 Cl  0  0  0  0  0  0  0  0  0  0  0  0
  138.6786  150.1874  140.5317 C   0  0  0  0  0  0  0  0  0  0  0  0
  137.6385  149.3840  140.0946 C   0  0  0  0  0  0  0  0  0  0  0  0
  138.7732  150.9300  141.6509 C   0  0  0  0  0  0  0  0  0  0  0  0
  138.1259  150.9095  142.4414 C   0  0  0  0  0  0  0  0  0  0  0  0
  136.8263  150.0689  142.3038 C   0  0  0  0  0  0  0  0  0  0  0  0
  138.0570  151.6723  143.9569 C   0  0  0  0  0  0  0  0  0  0  0  0
  135.7559  150.1857  143.2650 C   0  0  0  0  0  0  0  0  0  0  0  0
  137.5176  148.8394  138.8750 C   0  0  0  0  0  0  0  0  0  0  0  0
  137.0338  151.5855  144.7678 C   0  0  0  0  0  0  0  0  0  0  0  0
  135.8767  150.9173  144.4688 C   0  0  0  0  0  0  0  0  0  0  0  0
  136.5679  149.5014  141.0931 C   0  0  0  0  0  0  0  0  0  0  0  0
  1  2  1  0
  2  3  1  0
  2  4  2  0
  4  5  1  0
  5  6  2  0
  5  7  1  0
  6  8  1  0
  3  9  1  0
  7 10  2  0
  8 11  2  0
 10 11  1  0
  3 12  2  0
  6 12  1  0
M  END
$$$$
