
     RDKit          3D

  9  9  0  0  0  0  0  0  0  0999 V2000
  139.0013  149.7640  140.3646 C   0  0  0  0  0  0  0  0  0  0  0  0
  138.7145  149.5450  139.1245 C   0  0  0  0  0  0  0  0  0  0  0  0
  138.1850  150.1042  141.2847 C   0  0  0  0  0  0  0  0  0  0  0  0
  137.3213  149.5892  138.6814 C   0  0  0  0  0  0  0  0  0  0  0  0
  136.3778  149.8050  139.7334 C   0  0  0  0  0  0  0  0  0  0  0  0
  134.9489  149.8828  139.5594 C   0  0  0  0  0  0  0  0  0  0  0  0
  138.7131  150.4367  142.6974 C   0  0  0  0  0  0  0  0  0  0  0  0
  138.1966  151.4196  143.3843 C   0  0  0  0  0  0  0  0  0  0  0  0
  136.7468  150.2338  141.0531 C   0  0  0  0  0  0  0  0  0  0  0  0
  1  2  2  0
  1  3  1  0
  2  4  1  0
  4  5  2  0
  5  6  1  0
  3  7  1  0
  7  8  2  0
  3  9  2  0
  5  9  1  0
M  END
$$$$
