
     RDKit          3D

 12 12  0  0  0  0  0  0  0  0999 V2000
  140.3038  150.2150  139.4785 Cl  0  0  0  0  0  0  0  0  0  0  0  0
  138.6786  150.1874  140.5317 C   0  0  0  0  0  0  0  0  0  0  0  0
  137.6385  149.3840  140.0946 C   0  0  0  0  0  0  0  0  0  0  0  0
  138.7506  150.9507  141.6713 C   0  0  0  0  0  0  0  0  0  0  0  0
  136.5527  149.6212  140.7745 C   0  0  0  0  0  0  0  0  0  0  0  0
  135.2919  149.0327  140.1418 C   0  0  0  0  0  0  0  0  0  0  0  0
  136.5287  150.4782  141.8364 C   0  0  0  0  0  0  0  0  0  0  0  0
  135.3193  150.6924  142.7156 C   0  0  0  0  0  0  0  0  0  0  0  0
  137.8940  151.0699  142.3651 C   0  0  0  0  0  0  0  0  0  0  0  0
  135.6051  151.1815  144.0515 C   0  0  0  0  0  0  0  0  0  0  0  0
  134.5411  151.4806  144.9277 C   0  0  0  0  0  0  0  0  0  0  0  0
  134.9547  152.0344  146.2966 C   0  0  0  0  0  0  0  0  0  0  0  0
  1  2  1  0
  2  3  2  0
  2  4  1  0
  3  5  1  0
  5  6  1  0
  5  7  2  0
  7  8  1  0
  4  9  2  0
  7  9  1  0
  8 10  2  3
 10 11  1  0
 11 12  1  0
M  END
$$$$
