
     RDKit          3D

 12 13  0  0  0  0  0  0  0  0999 V2000
  140.3038  150.2150  139.4785 Cl  0  0  0  0  0  0  0  0  0  0  0  0
  138.6786  150.1874  140.5317 C   0  0  0  0  0  0  0  0  0  0  0  0
  137.6385  149.3840  140.0946 C   0  0  0  0  0  0  0  0  0  0  0  0
  139.0347  150.8837  141.6176 C   0  0  0  0  0  0  0  0  0  0  0  0
  138.0498  150.8352  142.6903 C   0  0  0  0  0  0  0  0  0  0  0  0
  136.8411  150.0647  142.4034 C   0  0  0  0  0  0  0  0  0  0  0  0
  135.8019  150.2271  143.4025 C   0  0  0  0  0  0  0  0  0  0  0  0
  136.5590  149.5483  141.0910 C   0  0  0  0  0  0  0  0  0  0  0  0
  136.2662  151.1910  144.5070 C   0  0  0  0  0  0  0  0  0  0  0  0
  135.8242  151.2377  145.6477 C   0  0  0  0  0  0  0  0  0  0  0  0
  135.1633  152.4987  146.1803 C   0  0  0  0  0  0  0  0  0  0  0  0
  137.9155  151.3418  143.9953 C   0  0  0  0  0  0  0  0  0  0  0  0
  1  2  1  0
  2  3  2  0
  2  4  1  0
  4  5  2  0
  5  6  1  0
  6  7  1  0
  3  8  1  0
  6  8  2  0
  7  9  1  0
  9 10  1  0
 10 11  1  0
  5 12  1  0
  9 12  1  0
M  END
$$$$
