
     RDKit          3D

 12 13  0  0  0  0  0  0  0  0999 V2000
  138.7090  151.1480  142.6270 C   0  0  0  0  0  0  0  0  0  0  0  0
  138.5232  151.9372  143.5110 C   0  0  0  0  0  0  0  0  0  0  0  0
  137.3801  151.6562  144.3958 C   0  0  0  0  0  0  0  0  0  0  0  0
  139.7036  151.1026  141.6212 C   0  0  0  0  0  0  0  0  0  0  0  0
  136.7239  150.4190  144.0179 C   0  0  0  0  0  0  0  0  0  0  0  0
  137.9015  150.0241  142.3223 C   0  0  0  0  0  0  0  0  0  0  0  0
  138.2278  149.2932  141.1442 C   0  0  0  0  0  0  0  0  0  0  0  0
  137.1510  152.6488  145.4050 C   0  0  0  0  0  0  0  0  0  0  0  0
  137.0246  149.7011  142.9651 N   0  0  0  0  0  0  0  0  0  0  0  0
  139.6385  150.2652  140.5663 C   0  0  0  0  0  0  0  0  0  0  0  0
  135.8032  152.7931  145.9837 C   0  0  0  0  0  0  0  0  0  0  0  0
  140.1378  150.0441  139.4686 C   0  0  0  0  0  0  0  0  0  0  0  0
  1  2  1  0
  2  3  2  0
  1  4  1  0
  3  5  1  0
  1  6  2  0
  6  7  1  0
  3  8  1  0
  5  9  2  0
  6  9  1  0
  4 10  1  0
  7 10  1  0
  8 11  1  0
 10 12  2  0
M  END
$$$$
