
     RDKit          3D

 12 13  0  0  0  0  0  0  0  0999 V2000
  140.3038  150.2150  139.4785 Cl  0  0  0  0  0  0  0  0  0  0  0  0
  138.6786  150.1874  140.5317 C   0  0  0  0  0  0  0  0  0  0  0  0
  137.6385  149.3840  140.0946 C   0  0  0  0  0  0  0  0  0  0  0  0
  139.0347  150.8837  141.6176 C   0  0  0  0  0  0  0  0  0  0  0  0
  136.4870  149.4739  141.0114 C   0  0  0  0  0  0  0  0  0  0  0  0
  135.2468  148.9969  140.4739 C   0  0  0  0  0  0  0  0  0  0  0  0
  136.7778  150.2789  142.0941 C   0  0  0  0  0  0  0  0  0  0  0  0
  135.6337  150.4006  143.1290 C   0  0  0  0  0  0  0  0  0  0  0  0
  136.1409  151.1664  144.3898 C   0  0  0  0  0  0  0  0  0  0  0  0
  137.3706  150.7740  144.7332 C   0  0  0  0  0  0  0  0  0  0  0  0
  138.4875  151.0896  143.8113 C   0  0  0  0  0  0  0  0  0  0  0  0
  138.0508  150.8000  142.6162 C   0  0  0  0  0  0  0  0  0  0  0  0
  1  2  1  0
  2  3  2  0
  2  4  1  0
  3  5  1  0
  5  6  1  0
  5  7  2  0
  7  8  1  0
  8  9  1  0
  9 10  2  0
 10 11  1  0
  4 12  2  0
  7 12  1  0
 11 12  1  0
M  END
$$$$
