
     RDKit          3D

 12 13  0  0  0  0  0  0  0  0999 V2000
  139.3423  149.9928  140.5892 C   0  0  0  0  0  0  0  0  0  0  0  0
  138.9530  149.9232  139.3662 C   0  0  0  0  0  0  0  0  0  0  0  0
  138.6126  150.1100  141.6424 C   0  0  0  0  0  0  0  0  0  0  0  0
  137.1875  149.8648  141.8313 C   0  0  0  0  0  0  0  0  0  0  0  0
  136.5143  149.7627  140.5785 C   0  0  0  0  0  0  0  0  0  0  0  0
  139.1422  150.4925  143.0862 C   0  0  0  0  0  0  0  0  0  0  0  0
  138.1958  151.0001  144.0544 C   0  0  0  0  0  0  0  0  0  0  0  0
  139.6674  149.8808  138.1647 C   0  0  0  0  0  0  0  0  0  0  0  0
  137.3629  149.7294  139.3147 C   0  0  0  0  0  0  0  0  0  0  0  0
  136.4872  150.1421  142.9828 N   0  0  0  0  0  0  0  0  0  0  0  0
  136.9686  150.6192  144.0027 C   0  0  0  0  0  0  0  0  0  0  0  0
  136.1438  151.0206  145.1233 C   0  0  0  0  0  0  0  0  0  0  0  0
  1  2  2  0
  1  3  1  0
  3  4  1  0
  4  5  2  0
  3  6  1  0
  6  7  2  0
  2  8  1  0
  2  9  1  0
  5  9  1  0
  4 10  1  0
  7 11  1  0
 10 11  2  0
 11 12  1  0
M  END
$$$$
