
     RDKit          3D

 12 13  0  0  0  0  0  0  0  0999 V2000
  138.7090  151.1480  142.6270 C   0  0  0  0  0  0  0  0  0  0  0  0
  138.5232  151.9372  143.5110 C   0  0  0  0  0  0  0  0  0  0  0  0
  137.3909  151.8067  144.0746 C   0  0  0  0  0  0  0  0  0  0  0  0
  136.5962  150.6163  143.9739 C   0  0  0  0  0  0  0  0  0  0  0  0
  137.9834  149.9618  142.2545 C   0  0  0  0  0  0  0  0  0  0  0  0
  136.5070  152.7471  145.0899 C   0  0  0  0  0  0  0  0  0  0  0  0
  135.4860  150.3687  144.8385 C   0  0  0  0  0  0  0  0  0  0  0  0
  136.9107  149.7044  142.9873 C   0  0  0  0  0  0  0  0  0  0  0  0
  135.1083  151.5625  145.5821 C   0  0  0  0  0  0  0  0  0  0  0  0
  133.8412  151.2798  146.5131 C   0  0  0  0  0  0  0  0  0  0  0  0
  135.5942  152.6002  145.7708 C   0  0  0  0  0  0  0  0  0  0  0  0
  140.0436  151.3293  141.7390 C   0  0  0  0  0  0  0  0  0  0  0  0
  1  2  1  0
  2  3  2  0
  3  4  1  0
  1  5  2  0
  3  6  1  0
  4  7  1  0
  4  8  2  0
  5  8  1  0
  7  9  2  0
  9 10  1  0
  6 11  1  0
  9 11  1  0
  1 12  1  0
M  END
$$$$
