
     RDKit          3D

  9  9  0  0  0  0  0  0  0  0999 V2000
  139.5350  150.8913  142.2315 C   0  0  0  0  0  0  0  0  0  0  0  0
  139.0135  150.3971  141.0590 C   0  0  0  0  0  0  0  0  0  0  0  0
  138.6977  150.9503  143.4041 C   0  0  0  0  0  0  0  0  0  0  0  0
  137.7106  149.9444  141.0466 C   0  0  0  0  0  0  0  0  0  0  0  0
  137.5168  150.9379  143.4786 C   0  0  0  0  0  0  0  0  0  0  0  0
  136.8087  150.2404  142.2066 C   0  0  0  0  0  0  0  0  0  0  0  0
  139.9245  150.3291  139.7195 C   0  0  0  0  0  0  0  0  0  0  0  0
  139.3315  150.3453  138.6016 C   0  0  0  0  0  0  0  0  0  0  0  0
  136.5456  151.2347  144.7449 C   0  0  0  0  0  0  0  0  0  0  0  0
  1  2  2  0
  1  3  1  0
  2  4  1  0
  3  5  2  0
  4  6  2  0
  5  6  1  0
  2  7  1  0
  7  8  2  0
  5  9  1  0
M  END
$$$$
