
     RDKit          3D

 12 13  0  0  0  0  0  0  0  0999 V2000
  139.5546  150.5070  140.4440 C   0  0  0  0  0  0  0  0  0  0  0  0
  139.2168  150.0150  139.3722 C   0  0  0  0  0  0  0  0  0  0  0  0
  138.8581  150.3073  141.5852 C   0  0  0  0  0  0  0  0  0  0  0  0
  137.9799  149.2986  139.2370 C   0  0  0  0  0  0  0  0  0  0  0  0
  137.1575  149.1630  140.3909 C   0  0  0  0  0  0  0  0  0  0  0  0
  139.3383  150.9197  142.9169 C   0  0  0  0  0  0  0  0  0  0  0  0
  138.3080  151.0871  143.9346 C   0  0  0  0  0  0  0  0  0  0  0  0
  137.1178  150.9397  143.6723 C   0  0  0  0  0  0  0  0  0  0  0  0
  137.4666  149.8048  141.5686 C   0  0  0  0  0  0  0  0  0  0  0  0
  136.5651  150.2586  142.5379 C   0  0  0  0  0  0  0  0  0  0  0  0
  136.0486  151.3928  144.8752 C   0  0  0  0  0  0  0  0  0  0  0  0
  135.5280  152.3885  144.8876 C   0  0  0  0  0  0  0  0  0  0  0  0
  1  2  2  0
  1  3  1  0
  2  4  1  0
  4  5  2  0
  3  6  1  0
  6  7  2  0
  7  8  1  0
  3  9  2  0
  5  9  1  0
  8 10  2  0
  9 10  1  0
  8 11  1  0
 11 12  2  0
M  END
$$$$
