
     RDKit          3D

 12 13  0  0  0  0  0  0  0  0999 V2000
  140.3038  150.2150  139.4785 Cl  0  0  0  0  0  0  0  0  0  0  0  0
  138.6786  150.1874  140.5317 C   0  0  0  0  0  0  0  0  0  0  0  0
  137.6385  149.3840  140.0946 C   0  0  0  0  0  0  0  0  0  0  0  0
  136.4399  149.4579  140.8211 C   0  0  0  0  0  0  0  0  0  0  0  0
  138.9830  150.6971  141.6805 C   0  0  0  0  0  0  0  0  0  0  0  0
  138.2331  150.9043  142.4752 C   0  0  0  0  0  0  0  0  0  0  0  0
  138.4970  151.5655  143.8665 C   0  0  0  0  0  0  0  0  0  0  0  0
  136.7758  150.4940  142.6016 C   0  0  0  0  0  0  0  0  0  0  0  0
  136.0204  150.0432  141.8245 C   0  0  0  0  0  0  0  0  0  0  0  0
  136.1862  150.9486  143.8645 N   0  0  0  0  0  0  0  0  0  0  0  0
  137.0931  151.5112  144.6434 C   0  0  0  0  0  0  0  0  0  0  0  0
  136.9408  152.0371  145.6388 O   0  0  0  0  0  0  0  0  0  0  0  0
  1  2  1  0
  2  3  2  0
  3  4  1  0
  2  5  1  0
  5  6  2  0
  6  7  1  0
  6  8  1  0
  4  9  2  0
  8  9  1  0
  8 10  2  0
  7 11  1  0
 10 11  1  0
 11 12  2  0
M  END
$$$$
