
     RDKit          3D

 13 14  0  0  0  0  0  0  0  0999 V2000
  138.7090  151.1480  142.6270 C   0  0  0  0  0  0  0  0  0  0  0  0
  138.5232  151.9372  143.5110 C   0  0  0  0  0  0  0  0  0  0  0  0
  137.3801  151.6562  144.3958 C   0  0  0  0  0  0  0  0  0  0  0  0
  139.7036  151.1026  141.6212 C   0  0  0  0  0  0  0  0  0  0  0  0
  136.7239  150.4190  144.0179 C   0  0  0  0  0  0  0  0  0  0  0  0
  137.9015  150.0241  142.3223 C   0  0  0  0  0  0  0  0  0  0  0  0
  138.2278  149.2932  141.1442 C   0  0  0  0  0  0  0  0  0  0  0  0
  136.9445  149.6821  143.0247 C   0  0  0  0  0  0  0  0  0  0  0  0
  137.0946  152.5090  145.4858 O   0  0  0  0  0  0  0  0  0  0  0  0
  137.4979  148.6970  140.3634 C   0  0  0  0  0  0  0  0  0  0  0  0
  136.0281  152.2308  146.1978 C   0  0  0  0  0  0  0  0  0  0  0  0
  139.5656  150.1267  140.6545 C   0  0  0  0  0  0  0  0  0  0  0  0
  140.2206  149.6953  139.5930 C   0  0  0  0  0  0  0  0  0  0  0  0
  1  2  1  0
  2  3  2  0
  1  4  1  0
  3  5  1  0
  1  6  2  0
  6  7  1  0
  5  8  2  0
  6  8  1  0
  3  9  1  0
  7 10  1  0
  9 11  1  0
  4 12  2  0
  7 12  1  0
 12 13  1  0
M  END
$$$$
