
     RDKit          3D

 13 14  0  0  0  0  0  0  0  0999 V2000
  139.3423  149.9928  140.5892 C   0  0  0  0  0  0  0  0  0  0  0  0
  138.9530  149.9232  139.3662 C   0  0  0  0  0  0  0  0  0  0  0  0
  138.6126  150.1100  141.6424 C   0  0  0  0  0  0  0  0  0  0  0  0
  137.1875  149.8648  141.8313 C   0  0  0  0  0  0  0  0  0  0  0  0
  136.5143  149.7627  140.5785 C   0  0  0  0  0  0  0  0  0  0  0  0
  139.1422  150.4925  143.0862 C   0  0  0  0  0  0  0  0  0  0  0  0
  138.1958  151.0001  144.0544 C   0  0  0  0  0  0  0  0  0  0  0  0
  136.9048  150.9691  143.8141 C   0  0  0  0  0  0  0  0  0  0  0  0
  136.2970  150.3281  142.8163 C   0  0  0  0  0  0  0  0  0  0  0  0
  135.2393  149.4700  140.4214 C   0  0  0  0  0  0  0  0  0  0  0  0
  136.4433  151.3556  145.1688 C   0  0  0  0  0  0  0  0  0  0  0  0
  135.2307  152.1119  145.2287 C   0  0  0  0  0  0  0  0  0  0  0  0
  137.4845  149.6974  139.3668 C   0  0  0  0  0  0  0  0  0  0  0  0
  1  2  2  0
  1  3  1  0
  3  4  1  0
  4  5  2  0
  3  6  1  0
  6  7  2  0
  7  8  1  0
  4  9  1  0
  8  9  1  0
  5 10  1  0
  8 11  2  3
 11 12  1  0
  2 13  1  0
  5 13  1  0
M  END
$$$$
