
     RDKit          3D

 13 14  0  0  0  0  0  0  0  0999 V2000
  139.3423  149.9928  140.5892 C   0  0  0  0  0  0  0  0  0  0  0  0
  138.9530  149.9232  139.3662 C   0  0  0  0  0  0  0  0  0  0  0  0
  138.6126  150.1100  141.6424 C   0  0  0  0  0  0  0  0  0  0  0  0
  137.1875  149.8648  141.8313 C   0  0  0  0  0  0  0  0  0  0  0  0
  136.5143  149.7627  140.5785 C   0  0  0  0  0  0  0  0  0  0  0  0
  139.1751  150.3995  143.1329 C   0  0  0  0  0  0  0  0  0  0  0  0
  138.2221  150.9725  144.0846 C   0  0  0  0  0  0  0  0  0  0  0  0
  136.9301  150.9606  143.8481 C   0  0  0  0  0  0  0  0  0  0  0  0
  139.8133  149.9572  138.2292 C   0  0  0  0  0  0  0  0  0  0  0  0
  136.2918  150.3719  142.8169 C   0  0  0  0  0  0  0  0  0  0  0  0
  135.9622  151.7226  145.1001 C   0  0  0  0  0  0  0  0  0  0  0  0
  137.4621  149.6900  139.3223 C   0  0  0  0  0  0  0  0  0  0  0  0
  134.9203  151.6852  145.1815 C   0  0  0  0  0  0  0  0  0  0  0  0
  1  2  2  0
  1  3  1  0
  3  4  1  0
  4  5  2  0
  3  6  1  0
  6  7  2  0
  7  8  1  0
  2  9  1  0
  4 10  1  0
  8 10  2  0
  8 11  1  0
  2 12  1  0
  5 12  1  0
 11 13  2  0
M  END
$$$$
