
     RDKit          3D

 13 13  0  0  0  0  0  0  0  0999 V2000
  138.9705  151.3131  142.5679 C   0  0  0  0  0  0  0  0  0  0  0  0
  138.6042  152.0888  143.2654 C   0  0  0  0  0  0  0  0  0  0  0  0
  137.6600  151.8318  144.0475 C   0  0  0  0  0  0  0  0  0  0  0  0
  136.5825  152.7511  144.5734 C   0  0  0  0  0  0  0  0  0  0  0  0
  135.5827  152.5121  145.5093 C   0  0  0  0  0  0  0  0  0  0  0  0
  139.9322  151.4080  141.3737 C   0  0  0  0  0  0  0  0  0  0  0  0
  135.6283  151.0416  145.7979 C   0  0  0  0  0  0  0  0  0  0  0  0
  139.6618  150.7206  140.2290 C   0  0  0  0  0  0  0  0  0  0  0  0
  140.5630  150.5753  139.1590 C   0  0  0  0  0  0  0  0  0  0  0  0
  137.2098  150.4561  144.6078 C   0  0  0  0  0  0  0  0  0  0  0  0
  138.2516  149.5525  144.1142 O   0  0  0  0  0  0  0  0  0  0  0  0
  134.5486  150.8034  146.8919 C   0  0  0  0  0  0  0  0  0  0  0  0
  136.3322  149.9544  145.4161 C   0  0  0  0  0  0  0  0  0  0  0  0
  1  2  2  3
  2  3  1  0
  3  4  1  0
  4  5  2  0
  1  6  1  0
  5  7  1  0
  6  8  2  3
  8  9  1  0
  3 10  2  0
 10 11  1  0
  7 12  1  0
  7 13  2  0
 10 13  1  0
M  END
$$$$
