
     RDKit          3D

 13 14  0  0  0  0  0  0  0  0999 V2000
  139.3949  150.7519  142.0137 C   0  0  0  0  0  0  0  0  0  0  0  0
  139.0649  150.4895  140.7536 C   0  0  0  0  0  0  0  0  0  0  0  0
  138.4480  150.6367  143.0431 C   0  0  0  0  0  0  0  0  0  0  0  0
  137.8334  149.9841  140.4385 C   0  0  0  0  0  0  0  0  0  0  0  0
  136.8172  149.7850  141.4636 C   0  0  0  0  0  0  0  0  0  0  0  0
  138.7926  151.0562  144.4368 C   0  0  0  0  0  0  0  0  0  0  0  0
  137.6189  151.6483  145.1213 C   0  0  0  0  0  0  0  0  0  0  0  0
  137.0423  150.3290  142.7058 C   0  0  0  0  0  0  0  0  0  0  0  0
  136.5236  151.4573  145.4403 C   0  0  0  0  0  0  0  0  0  0  0  0
  135.8403  150.3025  145.1080 C   0  0  0  0  0  0  0  0  0  0  0  0
  135.6177  152.4572  146.0993 C   0  0  0  0  0  0  0  0  0  0  0  0
  135.8271  150.2610  143.6124 N   0  0  0  0  0  0  0  0  0  0  0  0
  140.0482  150.5915  139.7083 C   0  0  0  0  0  0  0  0  0  0  0  0
  1  2  2  0
  1  3  1  0
  2  4  1  0
  4  5  2  0
  3  6  1  0
  6  7  2  0
  3  8  2  0
  5  8  1  0
  7  9  1  0
  9 10  2  0
  9 11  1  0
  8 12  1  0
 10 12  1  0
  2 13  1  0
M  END
$$$$
