
     RDKit          3D

 13 13  0  0  0  0  0  0  0  0999 V2000
  140.3038  150.2150  139.4785 Cl  0  0  0  0  0  0  0  0  0  0  0  0
  138.6786  150.1874  140.5317 C   0  0  0  0  0  0  0  0  0  0  0  0
  137.6385  149.3840  140.0946 C   0  0  0  0  0  0  0  0  0  0  0  0
  137.5435  148.9630  138.7458 C   0  0  0  0  0  0  0  0  0  0  0  0
  138.4874  150.4382  141.7160 C   0  0  0  0  0  0  0  0  0  0  0  0
  137.4116  150.4246  142.5549 C   0  0  0  0  0  0  0  0  0  0  0  0
  136.4818  149.5444  140.7982 C   0  0  0  0  0  0  0  0  0  0  0  0
  137.4234  150.9552  143.9579 C   0  0  0  0  0  0  0  0  0  0  0  0
  138.4811  150.8783  144.8513 C   0  0  0  0  0  0  0  0  0  0  0  0
  136.3573  151.4748  144.7294 C   0  0  0  0  0  0  0  0  0  0  0  0
  136.1486  152.8351  144.7810 C   0  0  0  0  0  0  0  0  0  0  0  0
  136.4032  150.0036  141.9861 N   0  0  0  0  0  0  0  0  0  0  0  0
  137.1208  153.7307  144.5163 C   0  0  0  0  0  0  0  0  0  0  0  0
  1  2  1  0
  2  3  2  0
  3  4  1  0
  2  5  1  0
  5  6  2  0
  3  7  1  0
  6  8  1  0
  8  9  1  0
  8 10  1  0
 10 11  1  0
  6 12  1  0
  7 12  2  0
 11 13  1  0
M  END
$$$$
