
     RDKit          3D

 13 14  0  0  0  0  0  0  0  0999 V2000
  138.9705  151.3131  142.5679 C   0  0  0  0  0  0  0  0  0  0  0  0
  138.6042  152.0888  143.2654 C   0  0  0  0  0  0  0  0  0  0  0  0
  137.6600  151.8318  144.0475 C   0  0  0  0  0  0  0  0  0  0  0  0
  136.5825  152.7511  144.5734 C   0  0  0  0  0  0  0  0  0  0  0  0
  135.5827  152.5121  145.5093 C   0  0  0  0  0  0  0  0  0  0  0  0
  139.9322  151.4080  141.3737 C   0  0  0  0  0  0  0  0  0  0  0  0
  135.6283  151.0416  145.7979 C   0  0  0  0  0  0  0  0  0  0  0  0
  137.2911  150.5061  144.5502 C   0  0  0  0  0  0  0  0  0  0  0  0
  134.5918  150.7438  146.8312 C   0  0  0  0  0  0  0  0  0  0  0  0
  139.6732  150.6665  140.2632 C   0  0  0  0  0  0  0  0  0  0  0  0
  138.5185  149.9140  140.2639 C   0  0  0  0  0  0  0  0  0  0  0  0
  138.3149  150.0641  142.1563 C   0  0  0  0  0  0  0  0  0  0  0  0
  136.3655  150.1214  145.4831 C   0  0  0  0  0  0  0  0  0  0  0  0
  1  2  2  3
  2  3  1  0
  3  4  1  0
  4  5  2  0
  1  6  1  0
  5  7  1  0
  3  8  2  0
  7  9  1  0
  6 10  2  0
 10 11  1  0
  1 12  1  0
 11 12  2  0
  7 13  2  0
  8 13  1  0
M  END
$$$$
