
     RDKit          3D

 13 14  0  0  0  0  0  0  0  0999 V2000
  140.3038  150.2150  139.4785 Cl  0  0  0  0  0  0  0  0  0  0  0  0
  138.6786  150.1874  140.5317 C   0  0  0  0  0  0  0  0  0  0  0  0
  137.6385  149.3840  140.0946 C   0  0  0  0  0  0  0  0  0  0  0  0
  138.7506  150.9507  141.6713 C   0  0  0  0  0  0  0  0  0  0  0  0
  136.5527  149.6212  140.7745 C   0  0  0  0  0  0  0  0  0  0  0  0
  135.2919  149.0327  140.1418 C   0  0  0  0  0  0  0  0  0  0  0  0
  136.5287  150.4782  141.8364 C   0  0  0  0  0  0  0  0  0  0  0  0
  135.3193  150.6924  142.7156 C   0  0  0  0  0  0  0  0  0  0  0  0
  135.7668  151.4926  143.9256 C   0  0  0  0  0  0  0  0  0  0  0  0
  137.1793  151.6857  143.9549 C   0  0  0  0  0  0  0  0  0  0  0  0
  137.6714  151.0567  142.4962 C   0  0  0  0  0  0  0  0  0  0  0  0
  137.9811  152.2328  144.8145 C   0  0  0  0  0  0  0  0  0  0  0  0
  134.9079  151.9353  144.9570 C   0  0  0  0  0  0  0  0  0  0  0  0
  1  2  1  0
  2  3  2  0
  2  4  1  0
  3  5  1  0
  5  6  1  0
  5  7  2  0
  7  8  1  0
  8  9  2  0
  9 10  1  0
  4 11  2  0
  7 11  1  0
 10 11  1  0
 10 12  1  0
  9 13  1  0
M  END
$$$$
