
     RDKit          3D

  9  9  0  0  0  0  0  0  0  0999 V2000
  139.3423  149.9928  140.5892 C   0  0  0  0  0  0  0  0  0  0  0  0
  138.9530  149.9232  139.3662 C   0  0  0  0  0  0  0  0  0  0  0  0
  138.6126  150.1100  141.6424 C   0  0  0  0  0  0  0  0  0  0  0  0
  137.1875  149.8648  141.8313 C   0  0  0  0  0  0  0  0  0  0  0  0
  136.5143  149.7627  140.5785 C   0  0  0  0  0  0  0  0  0  0  0  0
  137.2417  149.7110  139.2356 C   0  0  0  0  0  0  0  0  0  0  0  0
  139.2044  150.3486  143.0594 C   0  0  0  0  0  0  0  0  0  0  0  0
  138.6210  150.5149  144.2082 C   0  0  0  0  0  0  0  0  0  0  0  0
  137.7197  151.6604  144.4891 C   0  0  0  0  0  0  0  0  0  0  0  0
  1  2  2  0
  1  3  1  0
  3  4  1  0
  4  5  2  0
  2  6  1  0
  5  6  1  0
  3  7  2  3
  7  8  1  0
  8  9  1  0
M  END
$$$$
