
     RDKit          3D

 13 14  0  0  0  0  0  0  0  0999 V2000
  139.3423  149.9928  140.5892 C   0  0  0  0  0  0  0  0  0  0  0  0
  138.9530  149.9232  139.3662 C   0  0  0  0  0  0  0  0  0  0  0  0
  138.6126  150.1100  141.6424 C   0  0  0  0  0  0  0  0  0  0  0  0
  137.1875  149.8648  141.8313 C   0  0  0  0  0  0  0  0  0  0  0  0
  136.5143  149.7627  140.5785 C   0  0  0  0  0  0  0  0  0  0  0  0
  139.1422  150.4925  143.0862 C   0  0  0  0  0  0  0  0  0  0  0  0
  138.1958  151.0001  144.0544 C   0  0  0  0  0  0  0  0  0  0  0  0
  136.7353  150.3949  143.0646 C   0  0  0  0  0  0  0  0  0  0  0  0
  135.1509  149.5438  140.5010 C   0  0  0  0  0  0  0  0  0  0  0  0
  137.0479  150.7366  144.0791 C   0  0  0  0  0  0  0  0  0  0  0  0
  136.2382  151.2649  145.1842 C   0  0  0  0  0  0  0  0  0  0  0  0
  135.2206  152.0994  144.9270 C   0  0  0  0  0  0  0  0  0  0  0  0
  137.5133  149.6437  139.1708 C   0  0  0  0  0  0  0  0  0  0  0  0
  1  2  2  0
  1  3  1  0
  3  4  1  0
  4  5  2  0
  3  6  1  0
  6  7  2  0
  4  8  1  0
  5  9  1  0
  7 10  1  0
  8 10  2  0
 10 11  1  0
 11 12  1  0
  2 13  1  0
  5 13  1  0
M  END
$$$$
