
     RDKit          3D

 13 14  0  0  0  0  0  0  0  0999 V2000
  139.3423  149.9928  140.5892 C   0  0  0  0  0  0  0  0  0  0  0  0
  138.9530  149.9232  139.3662 C   0  0  0  0  0  0  0  0  0  0  0  0
  138.6126  150.1100  141.6424 C   0  0  0  0  0  0  0  0  0  0  0  0
  137.1875  149.8648  141.8313 C   0  0  0  0  0  0  0  0  0  0  0  0
  136.5143  149.7627  140.5785 C   0  0  0  0  0  0  0  0  0  0  0  0
  139.1422  150.4925  143.0862 C   0  0  0  0  0  0  0  0  0  0  0  0
  138.1958  151.0001  144.0544 C   0  0  0  0  0  0  0  0  0  0  0  0
  139.6674  149.8808  138.1647 C   0  0  0  0  0  0  0  0  0  0  0  0
  136.4892  150.1367  143.0242 C   0  0  0  0  0  0  0  0  0  0  0  0
  137.0902  150.6935  144.1028 C   0  0  0  0  0  0  0  0  0  0  0  0
  135.1564  149.5820  140.4604 C   0  0  0  0  0  0  0  0  0  0  0  0
  137.3672  149.7076  139.3147 C   0  0  0  0  0  0  0  0  0  0  0  0
  136.0648  151.0706  145.4516 C   0  0  0  0  0  0  0  0  0  0  0  0
  1  2  2  0
  1  3  1  0
  3  4  1  0
  4  5  2  0
  3  6  1  0
  6  7  2  0
  2  8  1  0
  4  9  1  0
  7 10  1  0
  9 10  2  0
  5 11  1  0
  2 12  1  0
  5 12  1  0
 10 13  1  0
M  END
$$$$
