
     RDKit          3D

  9  9  0  0  0  0  0  0  0  0999 V2000
  139.3423  149.9928  140.5892 C   0  0  0  0  0  0  0  0  0  0  0  0
  138.9530  149.9232  139.3662 C   0  0  0  0  0  0  0  0  0  0  0  0
  138.6126  150.1100  141.6424 C   0  0  0  0  0  0  0  0  0  0  0  0
  137.1875  149.8648  141.8313 C   0  0  0  0  0  0  0  0  0  0  0  0
  136.5143  149.7627  140.5785 C   0  0  0  0  0  0  0  0  0  0  0  0
  139.1751  150.3995  143.1329 C   0  0  0  0  0  0  0  0  0  0  0  0
  138.2221  150.9725  144.0846 C   0  0  0  0  0  0  0  0  0  0  0  0
  137.3832  149.6970  139.2597 C   0  0  0  0  0  0  0  0  0  0  0  0
  137.6118  152.1716  143.8874 C   0  0  0  0  0  0  0  0  0  0  0  0
  1  2  2  0
  1  3  1  0
  3  4  1  0
  4  5  2  0
  3  6  1  0
  6  7  1  0
  2  8  1  0
  5  8  1  0
  7  9  1  0
M  END
$$$$
