
     RDKit          3D

 13 14  0  0  0  0  0  0  0  0999 V2000
  139.5546  150.5070  140.4440 C   0  0  0  0  0  0  0  0  0  0  0  0
  139.2168  150.0150  139.3722 C   0  0  0  0  0  0  0  0  0  0  0  0
  138.8581  150.3073  141.5852 C   0  0  0  0  0  0  0  0  0  0  0  0
  139.2290  150.3516  142.8905 C   0  0  0  0  0  0  0  0  0  0  0  0
  138.3519  151.0008  143.9747 C   0  0  0  0  0  0  0  0  0  0  0  0
  137.0523  151.0914  143.5474 C   0  0  0  0  0  0  0  0  0  0  0  0
  136.6860  150.8725  142.2137 C   0  0  0  0  0  0  0  0  0  0  0  0
  137.8001  149.5956  139.2368 C   0  0  0  0  0  0  0  0  0  0  0  0
  137.2216  149.1364  138.1693 C   0  0  0  0  0  0  0  0  0  0  0  0
  137.4603  150.4510  141.2574 C   0  0  0  0  0  0  0  0  0  0  0  0
  136.8766  149.9721  140.3143 C   0  0  0  0  0  0  0  0  0  0  0  0
  136.0800  151.5272  144.6936 C   0  0  0  0  0  0  0  0  0  0  0  0
  136.1628  151.4751  145.8506 C   0  0  0  0  0  0  0  0  0  0  0  0
  1  2  2  0
  1  3  1  0
  3  4  1  0
  4  5  2  0
  5  6  1  0
  6  7  2  0
  2  8  1  0
  8  9  2  0
  3 10  2  0
  7 10  1  0
  8 11  1  0
 10 11  1  0
  6 12  1  0
 12 13  2  0
M  END
$$$$
