
     RDKit          3D

 13 14  0  0  0  0  0  0  0  0999 V2000
  139.3423  149.9928  140.5892 C   0  0  0  0  0  0  0  0  0  0  0  0
  138.9530  149.9232  139.3662 C   0  0  0  0  0  0  0  0  0  0  0  0
  138.6126  150.1100  141.6424 C   0  0  0  0  0  0  0  0  0  0  0  0
  137.1875  149.8648  141.8313 C   0  0  0  0  0  0  0  0  0  0  0  0
  136.5143  149.7627  140.5785 C   0  0  0  0  0  0  0  0  0  0  0  0
  139.1422  150.4925  143.0862 C   0  0  0  0  0  0  0  0  0  0  0  0
  138.2697  151.1411  143.8764 C   0  0  0  0  0  0  0  0  0  0  0  0
  136.9541  151.0016  143.8143 C   0  0  0  0  0  0  0  0  0  0  0  0
  136.3056  150.3357  142.7710 C   0  0  0  0  0  0  0  0  0  0  0  0
  137.3642  149.5965  139.3069 C   0  0  0  0  0  0  0  0  0  0  0  0
  136.4290  151.6403  144.9586 C   0  0  0  0  0  0  0  0  0  0  0  0
  135.1962  151.5951  145.3240 C   0  0  0  0  0  0  0  0  0  0  0  0
  134.5489  152.6005  146.2826 C   0  0  0  0  0  0  0  0  0  0  0  0
  1  2  2  0
  1  3  1  0
  3  4  1  0
  4  5  2  0
  3  6  1  0
  6  7  2  0
  7  8  1  0
  4  9  1  0
  8  9  1  0
  2 10  1  0
  5 10  1  0
  8 11  2  3
 11 12  1  0
 12 13  2  0
M  END
$$$$
