
     RDKit          3D

 13 14  0  0  0  0  0  0  0  0999 V2000
  139.5546  150.5070  140.4440 C   0  0  0  0  0  0  0  0  0  0  0  0
  139.2168  150.0150  139.3722 C   0  0  0  0  0  0  0  0  0  0  0  0
  138.8581  150.3073  141.5852 C   0  0  0  0  0  0  0  0  0  0  0  0
  139.2290  150.3516  142.8905 C   0  0  0  0  0  0  0  0  0  0  0  0
  138.3519  151.0008  143.9747 C   0  0  0  0  0  0  0  0  0  0  0  0
  137.3998  151.4263  143.6194 C   0  0  0  0  0  0  0  0  0  0  0  0
  136.5329  152.2351  144.5998 C   0  0  0  0  0  0  0  0  0  0  0  0
  137.8483  149.5152  139.3347 C   0  0  0  0  0  0  0  0  0  0  0  0
  135.3557  151.6310  145.1329 C   0  0  0  0  0  0  0  0  0  0  0  0
  137.0850  149.5672  140.4675 C   0  0  0  0  0  0  0  0  0  0  0  0
  137.5543  150.0653  141.6235 C   0  0  0  0  0  0  0  0  0  0  0  0
  136.6438  150.8651  142.5587 N   0  0  0  0  0  0  0  0  0  0  0  0
  137.0085  153.1154  145.1873 O   0  0  0  0  0  0  0  0  0  0  0  0
  1  2  2  0
  1  3  1  0
  3  4  1  0
  4  5  2  0
  5  6  1  0
  6  7  1  0
  2  8  1  0
  7  9  1  0
  8 10  2  0
  3 11  2  0
 10 11  1  0
  6 12  2  0
 11 12  1  0
  7 13  2  0
M  END
$$$$
