
     RDKit          3D

 13 14  0  0  0  0  0  0  0  0999 V2000
  140.3038  150.2150  139.4785 Cl  0  0  0  0  0  0  0  0  0  0  0  0
  138.6786  150.1874  140.5317 C   0  0  0  0  0  0  0  0  0  0  0  0
  137.6385  149.3840  140.0946 C   0  0  0  0  0  0  0  0  0  0  0  0
  137.5435  148.9630  138.7458 C   0  0  0  0  0  0  0  0  0  0  0  0
  138.4874  150.4382  141.7160 C   0  0  0  0  0  0  0  0  0  0  0  0
  137.4116  150.4246  142.5549 C   0  0  0  0  0  0  0  0  0  0  0  0
  136.4818  149.5444  140.7982 C   0  0  0  0  0  0  0  0  0  0  0  0
  137.4234  150.9552  143.9579 C   0  0  0  0  0  0  0  0  0  0  0  0
  136.3846  150.0821  142.0789 C   0  0  0  0  0  0  0  0  0  0  0  0
  138.4586  150.9238  144.8031 C   0  0  0  0  0  0  0  0  0  0  0  0
  136.5621  151.8326  144.5094 C   0  0  0  0  0  0  0  0  0  0  0  0
  136.9811  152.6508  145.6624 C   0  0  0  0  0  0  0  0  0  0  0  0
  138.4951  151.7698  145.8901 C   0  0  0  0  0  0  0  0  0  0  0  0
  1  2  1  0
  2  3  2  0
  3  4  1  0
  2  5  1  0
  5  6  2  0
  3  7  1  0
  6  8  1  0
  6  9  1  0
  7  9  2  0
  8 10  2  0
  8 11  1  0
 11 12  1  0
 10 13  1  0
 12 13  2  0
M  END
$$$$
