
     RDKit          3D

  9  9  0  0  0  0  0  0  0  0999 V2000
  138.9705  151.3131  142.5679 C   0  0  0  0  0  0  0  0  0  0  0  0
  138.6042  152.0888  143.2654 C   0  0  0  0  0  0  0  0  0  0  0  0
  137.4887  151.7640  144.1910 C   0  0  0  0  0  0  0  0  0  0  0  0
  139.9944  151.3872  141.4253 C   0  0  0  0  0  0  0  0  0  0  0  0
  139.7073  150.7352  140.2228 C   0  0  0  0  0  0  0  0  0  0  0  0
  137.0842  150.3806  143.9221 C   0  0  0  0  0  0  0  0  0  0  0  0
  138.1230  149.9942  142.5027 C   0  0  0  0  0  0  0  0  0  0  0  0
  140.7296  150.7840  139.1610 C   0  0  0  0  0  0  0  0  0  0  0  0
  136.7790  152.3997  145.2865 C   0  0  0  0  0  0  0  0  0  0  0  0
  1  2  1  0
  2  3  2  0
  1  4  1  0
  4  5  2  3
  3  6  1  0
  1  7  2  0
  6  7  1  0
  5  8  1  0
  3  9  1  0
M  END
$$$$
