
     RDKit          3D

 14 15  0  0  0  0  0  0  0  0999 V2000
  139.3423  149.9928  140.5892 C   0  0  0  0  0  0  0  0  0  0  0  0
  138.9530  149.9232  139.3662 C   0  0  0  0  0  0  0  0  0  0  0  0
  138.6126  150.1100  141.6424 C   0  0  0  0  0  0  0  0  0  0  0  0
  137.1875  149.8648  141.8313 C   0  0  0  0  0  0  0  0  0  0  0  0
  136.5143  149.7627  140.5785 C   0  0  0  0  0  0  0  0  0  0  0  0
  139.1422  150.4925  143.0862 C   0  0  0  0  0  0  0  0  0  0  0  0
  138.2697  151.1411  143.8764 C   0  0  0  0  0  0  0  0  0  0  0  0
  136.9541  151.0016  143.8143 C   0  0  0  0  0  0  0  0  0  0  0  0
  136.3226  150.3068  142.8356 C   0  0  0  0  0  0  0  0  0  0  0  0
  136.1157  151.6244  145.0783 C   0  0  0  0  0  0  0  0  0  0  0  0
  139.7152  149.9282  138.1979 C   0  0  0  0  0  0  0  0  0  0  0  0
  135.0275  152.0950  144.9083 C   0  0  0  0  0  0  0  0  0  0  0  0
  135.2061  149.4692  140.4120 C   0  0  0  0  0  0  0  0  0  0  0  0
  137.3598  149.6477  139.3550 C   0  0  0  0  0  0  0  0  0  0  0  0
  1  2  2  0
  1  3  1  0
  3  4  1  0
  4  5  2  0
  3  6  1  0
  6  7  2  0
  7  8  1  0
  4  9  1  0
  8  9  2  0
  8 10  1  0
  2 11  1  0
 10 12  2  0
  5 13  1  0
  2 14  1  0
  5 14  1  0
M  END
$$$$
