
     RDKit          3D

 14 15  0  0  0  0  0  0  0  0999 V2000
  139.5546  150.5070  140.4440 C   0  0  0  0  0  0  0  0  0  0  0  0
  139.2168  150.0150  139.3722 C   0  0  0  0  0  0  0  0  0  0  0  0
  138.8581  150.3073  141.5852 C   0  0  0  0  0  0  0  0  0  0  0  0
  139.2290  150.3516  142.8905 C   0  0  0  0  0  0  0  0  0  0  0  0
  138.3519  151.0008  143.9747 C   0  0  0  0  0  0  0  0  0  0  0  0
  137.3998  151.4263  143.6194 C   0  0  0  0  0  0  0  0  0  0  0  0
  137.8664  149.5592  139.2622 C   0  0  0  0  0  0  0  0  0  0  0  0
  137.3746  149.0152  138.0520 C   0  0  0  0  0  0  0  0  0  0  0  0
  136.7416  151.2582  142.3215 C   0  0  0  0  0  0  0  0  0  0  0  0
  137.4186  150.5247  141.3998 C   0  0  0  0  0  0  0  0  0  0  0  0
  136.5456  152.4545  144.7741 C   0  0  0  0  0  0  0  0  0  0  0  0
  136.9728  149.9152  140.3229 C   0  0  0  0  0  0  0  0  0  0  0  0
  137.0873  153.5782  145.0693 C   0  0  0  0  0  0  0  0  0  0  0  0
  135.4039  151.8270  145.1165 C   0  0  0  0  0  0  0  0  0  0  0  0
  1  2  2  0
  1  3  1  0
  3  4  1  0
  4  5  2  0
  5  6  1  0
  2  7  1  0
  7  8  1  0
  6  9  2  0
  3 10  2  0
  9 10  1  0
  6 11  1  0
  7 12  2  0
 10 12  1  0
 11 13  2  0
 11 14  1  0
M  END
$$$$
