
     RDKit          3D

  9  9  0  0  0  0  0  0  0  0999 V2000
  139.2621  151.0930  142.4042 C   0  0  0  0  0  0  0  0  0  0  0  0
  138.8616  152.1304  142.9039 C   0  0  0  0  0  0  0  0  0  0  0  0
  137.9119  151.7966  143.7821 C   0  0  0  0  0  0  0  0  0  0  0  0
  138.8318  150.4014  141.6013 C   0  0  0  0  0  0  0  0  0  0  0  0
  137.6882  149.9441  141.7473 C   0  0  0  0  0  0  0  0  0  0  0  0
  136.7295  151.0149  143.4791 C   0  0  0  0  0  0  0  0  0  0  0  0
  136.5888  150.2155  142.5543 C   0  0  0  0  0  0  0  0  0  0  0  0
  135.6602  151.3433  144.5255 C   0  0  0  0  0  0  0  0  0  0  0  0
  136.0026  151.9872  145.5458 O   0  0  0  0  0  0  0  0  0  0  0  0
  1  2  1  0
  2  3  2  0
  1  4  2  0
  4  5  1  0
  3  6  1  0
  5  7  2  0
  6  7  1  0
  6  8  1  0
  8  9  1  0
M  END
$$$$
