
     RDKit          3D

 14 15  0  0  0  0  0  0  0  0999 V2000
  139.5546  150.5070  140.4440 C   0  0  0  0  0  0  0  0  0  0  0  0
  139.2168  150.0150  139.3722 C   0  0  0  0  0  0  0  0  0  0  0  0
  138.8581  150.3073  141.5852 C   0  0  0  0  0  0  0  0  0  0  0  0
  137.9799  149.2986  139.2370 C   0  0  0  0  0  0  0  0  0  0  0  0
  137.5554  148.8167  137.9571 C   0  0  0  0  0  0  0  0  0  0  0  0
  139.2072  150.9124  142.9002 C   0  0  0  0  0  0  0  0  0  0  0  0
  138.1324  151.1490  143.9185 C   0  0  0  0  0  0  0  0  0  0  0  0
  137.2046  149.2734  140.4656 C   0  0  0  0  0  0  0  0  0  0  0  0
  136.9162  150.5386  143.4716 C   0  0  0  0  0  0  0  0  0  0  0  0
  137.5163  149.7691  141.5577 C   0  0  0  0  0  0  0  0  0  0  0  0
  135.9115  150.8530  144.5998 C   0  0  0  0  0  0  0  0  0  0  0  0
  135.3989  152.1744  144.6549 C   0  0  0  0  0  0  0  0  0  0  0  0
  135.2650  152.7619  146.0936 C   0  0  0  0  0  0  0  0  0  0  0  0
  136.5974  149.9090  142.5726 N   0  0  0  0  0  0  0  0  0  0  0  0
  1  2  2  0
  1  3  1  0
  2  4  1  0
  4  5  1  0
  3  6  1  0
  6  7  2  0
  4  8  2  0
  7  9  1  0
  3 10  2  0
  8 10  1  0
  9 11  1  0
 11 12  1  0
 12 13  1  0
  9 14  2  0
 10 14  1  0
M  END
$$$$
