
     RDKit          3D

 14 15  0  0  0  0  0  0  0  0999 V2000
  139.3423  149.9928  140.5892 C   0  0  0  0  0  0  0  0  0  0  0  0
  138.9530  149.9232  139.3662 C   0  0  0  0  0  0  0  0  0  0  0  0
  138.6126  150.1100  141.6424 C   0  0  0  0  0  0  0  0  0  0  0  0
  137.1875  149.8648  141.8313 C   0  0  0  0  0  0  0  0  0  0  0  0
  136.5143  149.7627  140.5785 C   0  0  0  0  0  0  0  0  0  0  0  0
  139.1751  150.3995  143.1329 C   0  0  0  0  0  0  0  0  0  0  0  0
  138.3315  151.1461  143.8950 C   0  0  0  0  0  0  0  0  0  0  0  0
  135.0981  149.6674  140.3637 C   0  0  0  0  0  0  0  0  0  0  0  0
  139.6837  149.8630  138.1743 C   0  0  0  0  0  0  0  0  0  0  0  0
  137.0153  151.0564  144.0316 C   0  0  0  0  0  0  0  0  0  0  0  0
  136.3187  151.4986  145.1678 C   0  0  0  0  0  0  0  0  0  0  0  0
  137.3768  149.7032  139.2571 C   0  0  0  0  0  0  0  0  0  0  0  0
  136.3955  150.2114  142.9581 N   0  0  0  0  0  0  0  0  0  0  0  0
  136.7721  151.8413  146.2797 O   0  0  0  0  0  0  0  0  0  0  0  0
  1  2  2  0
  1  3  1  0
  3  4  1  0
  4  5  2  0
  3  6  1  0
  6  7  2  0
  5  8  1  0
  2  9  1  0
  7 10  1  0
 10 11  1  0
  2 12  1  0
  5 12  1  0
  4 13  1  0
 10 13  2  0
 11 14  1  0
M  END
$$$$
