
     RDKit          3D

 14 15  0  0  0  0  0  0  0  0999 V2000
  139.5546  150.5070  140.4440 C   0  0  0  0  0  0  0  0  0  0  0  0
  139.2168  150.0150  139.3722 C   0  0  0  0  0  0  0  0  0  0  0  0
  138.8581  150.3073  141.5852 C   0  0  0  0  0  0  0  0  0  0  0  0
  139.2290  150.3516  142.8905 C   0  0  0  0  0  0  0  0  0  0  0  0
  138.3519  151.0008  143.9747 C   0  0  0  0  0  0  0  0  0  0  0  0
  137.3998  151.4263  143.6194 C   0  0  0  0  0  0  0  0  0  0  0  0
  137.8664  149.5592  139.2622 C   0  0  0  0  0  0  0  0  0  0  0  0
  137.3746  149.0152  138.0520 C   0  0  0  0  0  0  0  0  0  0  0  0
  137.0888  149.7124  140.4655 C   0  0  0  0  0  0  0  0  0  0  0  0
  137.4150  150.3212  141.8210 C   0  0  0  0  0  0  0  0  0  0  0  0
  136.5481  152.2189  144.6454 C   0  0  0  0  0  0  0  0  0  0  0  0
  136.5477  150.8865  142.6180 C   0  0  0  0  0  0  0  0  0  0  0  0
  135.4604  151.7796  145.2687 C   0  0  0  0  0  0  0  0  0  0  0  0
  134.6910  152.6649  146.1793 C   0  0  0  0  0  0  0  0  0  0  0  0
  1  2  2  0
  1  3  1  0
  3  4  1  0
  4  5  2  0
  5  6  1  0
  2  7  1  0
  7  8  1  0
  7  9  2  0
  3 10  2  0
  9 10  1  0
  6 11  1  0
  6 12  2  0
 10 12  1  0
 11 13  1  0
 13 14  2  0
M  END
$$$$
