
     RDKit          3D

 14 15  0  0  0  0  0  0  0  0999 V2000
  139.5546  150.5070  140.4440 C   0  0  0  0  0  0  0  0  0  0  0  0
  139.2168  150.0150  139.3722 C   0  0  0  0  0  0  0  0  0  0  0  0
  138.8581  150.3073  141.5852 C   0  0  0  0  0  0  0  0  0  0  0  0
  137.9799  149.2986  139.2370 C   0  0  0  0  0  0  0  0  0  0  0  0
  137.1575  149.1630  140.3909 C   0  0  0  0  0  0  0  0  0  0  0  0
  139.3383  150.9197  142.9169 C   0  0  0  0  0  0  0  0  0  0  0  0
  138.3080  151.0871  143.9346 C   0  0  0  0  0  0  0  0  0  0  0  0
  135.7334  148.7642  140.2438 C   0  0  0  0  0  0  0  0  0  0  0  0
  137.1254  150.5266  143.5545 C   0  0  0  0  0  0  0  0  0  0  0  0
  136.0596  150.7968  144.4933 C   0  0  0  0  0  0  0  0  0  0  0  0
  137.5394  149.7776  141.5404 C   0  0  0  0  0  0  0  0  0  0  0  0
  135.3950  151.9121  144.5453 C   0  0  0  0  0  0  0  0  0  0  0  0
  136.6979  149.8917  142.6430 N   0  0  0  0  0  0  0  0  0  0  0  0
  135.6672  152.8192  145.6826 C   0  0  0  0  0  0  0  0  0  0  0  0
  1  2  2  0
  1  3  1  0
  2  4  1  0
  4  5  2  0
  3  6  1  0
  6  7  2  0
  5  8  1  0
  7  9  1  0
  9 10  1  0
  3 11  2  0
  5 11  1  0
 10 12  1  0
  9 13  2  0
 11 13  1  0
 12 14  1  0
M  END
$$$$
