
     RDKit          3D

  9  9  0  0  0  0  0  0  0  0999 V2000
  138.9705  151.3131  142.5679 C   0  0  0  0  0  0  0  0  0  0  0  0
  138.6042  152.0888  143.2654 C   0  0  0  0  0  0  0  0  0  0  0  0
  137.6600  151.8318  144.0475 C   0  0  0  0  0  0  0  0  0  0  0  0
  139.9937  151.3538  141.4312 C   0  0  0  0  0  0  0  0  0  0  0  0
  137.4841  150.6607  144.8972 C   0  0  0  0  0  0  0  0  0  0  0  0
  139.6563  150.7262  140.2643 C   0  0  0  0  0  0  0  0  0  0  0  0
  138.5002  150.0432  140.1976 C   0  0  0  0  0  0  0  0  0  0  0  0
  138.1256  150.0241  142.1727 C   0  0  0  0  0  0  0  0  0  0  0  0
  137.8236  149.5639  141.0494 C   0  0  0  0  0  0  0  0  0  0  0  0
  1  2  2  3
  2  3  1  0
  1  4  1  0
  3  5  2  0
  4  6  2  0
  6  7  1  0
  1  8  1  0
  7  9  2  0
  8  9  2  0
M  END
$$$$
