
     RDKit          3D

 14 15  0  0  0  0  0  0  0  0999 V2000
  138.9705  151.3131  142.5679 C   0  0  0  0  0  0  0  0  0  0  0  0
  138.6042  152.0888  143.2654 C   0  0  0  0  0  0  0  0  0  0  0  0
  139.7531  151.4376  141.3509 C   0  0  0  0  0  0  0  0  0  0  0  0
  137.7656  151.7117  144.3553 C   0  0  0  0  0  0  0  0  0  0  0  0
  136.9071  152.4952  145.1793 C   0  0  0  0  0  0  0  0  0  0  0  0
  139.5680  150.5566  140.2446 C   0  0  0  0  0  0  0  0  0  0  0  0
  137.0955  153.8090  145.1300 C   0  0  0  0  0  0  0  0  0  0  0  0
  138.5854  149.5207  140.6466 C   0  0  0  0  0  0  0  0  0  0  0  0
  136.0552  152.0124  145.7506 C   0  0  0  0  0  0  0  0  0  0  0  0
  138.1591  150.0533  142.4514 C   0  0  0  0  0  0  0  0  0  0  0  0
  137.4949  150.0289  143.8229 C   0  0  0  0  0  0  0  0  0  0  0  0
  138.2444  148.7485  139.3423 C   0  0  0  0  0  0  0  0  0  0  0  0
  134.9281  152.7732  146.2664 C   0  0  0  0  0  0  0  0  0  0  0  0
  137.8453  149.1391  141.6651 N   0  0  0  0  0  0  0  0  0  0  0  0
  1  2  1  0
  1  3  1  0
  2  4  2  0
  4  5  1  0
  3  6  2  0
  5  7  1  0
  6  8  1  0
  5  9  2  3
  1 10  2  0
  4 11  1  0
 10 11  1  0
  8 12  1  0
  9 13  1  0
  8 14  2  0
 10 14  1  0
M  END
$$$$
