
     RDKit          3D

 14 15  0  0  0  0  0  0  0  0999 V2000
  138.9705  151.3131  142.5679 C   0  0  0  0  0  0  0  0  0  0  0  0
  138.6042  152.0888  143.2654 C   0  0  0  0  0  0  0  0  0  0  0  0
  137.6600  151.8318  144.0475 C   0  0  0  0  0  0  0  0  0  0  0  0
  136.5825  152.7511  144.5734 C   0  0  0  0  0  0  0  0  0  0  0  0
  135.5827  152.5121  145.5093 C   0  0  0  0  0  0  0  0  0  0  0  0
  139.9322  151.4080  141.3737 C   0  0  0  0  0  0  0  0  0  0  0  0
  135.6283  151.0416  145.7979 C   0  0  0  0  0  0  0  0  0  0  0  0
  139.6618  150.7206  140.2290 C   0  0  0  0  0  0  0  0  0  0  0  0
  137.2798  150.4935  144.5471 C   0  0  0  0  0  0  0  0  0  0  0  0
  136.3854  150.1314  145.4417 C   0  0  0  0  0  0  0  0  0  0  0  0
  138.4722  150.0213  140.1853 C   0  0  0  0  0  0  0  0  0  0  0  0
  137.5144  149.8046  141.2135 C   0  0  0  0  0  0  0  0  0  0  0  0
  140.5304  150.7431  139.1589 C   0  0  0  0  0  0  0  0  0  0  0  0
  138.0205  150.5524  142.3498 C   0  0  0  0  0  0  0  0  0  0  0  0
  1  2  2  3
  2  3  1  0
  3  4  1  0
  4  5  2  0
  1  6  1  0
  5  7  1  0
  6  8  2  0
  3  9  2  0
  7 10  2  0
  9 10  1  0
  8 11  1  0
 11 12  1  0
  8 13  1  0
  1 14  1  0
 12 14  1  0
M  END
$$$$
