
     RDKit          3D

 14 15  0  0  0  0  0  0  0  0999 V2000
  139.3423  149.9928  140.5892 C   0  0  0  0  0  0  0  0  0  0  0  0
  138.9530  149.9232  139.3662 C   0  0  0  0  0  0  0  0  0  0  0  0
  138.6126  150.1100  141.6424 C   0  0  0  0  0  0  0  0  0  0  0  0
  137.1875  149.8648  141.8313 C   0  0  0  0  0  0  0  0  0  0  0  0
  136.5143  149.7627  140.5785 C   0  0  0  0  0  0  0  0  0  0  0  0
  139.1751  150.3995  143.1329 C   0  0  0  0  0  0  0  0  0  0  0  0
  138.2221  150.9725  144.0846 C   0  0  0  0  0  0  0  0  0  0  0  0
  139.6660  149.8809  138.1670 C   0  0  0  0  0  0  0  0  0  0  0  0
  136.9203  150.8967  143.8605 C   0  0  0  0  0  0  0  0  0  0  0  0
  137.3919  149.7281  139.3042 C   0  0  0  0  0  0  0  0  0  0  0  0
  136.2926  150.4346  142.9402 C   0  0  0  0  0  0  0  0  0  0  0  0
  136.1135  151.4897  145.0562 C   0  0  0  0  0  0  0  0  0  0  0  0
  136.4486  151.7191  146.2691 C   0  0  0  0  0  0  0  0  0  0  0  0
  134.8305  152.0014  144.8149 C   0  0  0  0  0  0  0  0  0  0  0  0
  1  2  2  0
  1  3  1  0
  3  4  1  0
  4  5  2  0
  3  6  1  0
  6  7  2  0
  2  8  1  0
  7  9  1  0
  2 10  1  0
  5 10  1  0
  4 11  1  0
  9 11  2  0
  9 12  1  0
 12 13  1  0
 12 14  2  0
M  END
$$$$
