
     RDKit          3D

  9  9  0  0  0  0  0  0  0  0999 V2000
  138.9705  151.3131  142.5679 C   0  0  0  0  0  0  0  0  0  0  0  0
  138.6042  152.0888  143.2654 C   0  0  0  0  0  0  0  0  0  0  0  0
  137.6273  151.7082  144.0681 C   0  0  0  0  0  0  0  0  0  0  0  0
  137.2534  150.3600  144.1198 C   0  0  0  0  0  0  0  0  0  0  0  0
  138.6239  149.8562  142.4598 C   0  0  0  0  0  0  0  0  0  0  0  0
  136.6490  152.4687  145.1150 C   0  0  0  0  0  0  0  0  0  0  0  0
  137.8025  149.3861  143.3452 C   0  0  0  0  0  0  0  0  0  0  0  0
  136.9749  153.7915  145.3460 C   0  0  0  0  0  0  0  0  0  0  0  0
  135.6791  151.8598  145.6658 C   0  0  0  0  0  0  0  0  0  0  0  0
  1  2  1  0
  2  3  2  0
  3  4  1  0
  1  5  2  0
  3  6  1  0
  4  7  2  0
  5  7  1  0
  6  8  2  0
  6  9  1  0
M  END
$$$$
