
     RDKit          3D

 14 15  0  0  0  0  0  0  0  0999 V2000
  140.3038  150.2150  139.4785 Cl  0  0  0  0  0  0  0  0  0  0  0  0
  138.6786  150.1874  140.5317 C   0  0  0  0  0  0  0  0  0  0  0  0
  137.6385  149.3840  140.0946 C   0  0  0  0  0  0  0  0  0  0  0  0
  139.2404  150.7160  141.5759 C   0  0  0  0  0  0  0  0  0  0  0  0
  138.3592  151.0512  142.3776 C   0  0  0  0  0  0  0  0  0  0  0  0
  136.9526  150.5124  142.2952 C   0  0  0  0  0  0  0  0  0  0  0  0
  138.4072  151.7168  143.9009 C   0  0  0  0  0  0  0  0  0  0  0  0
  135.8504  150.7944  143.2209 C   0  0  0  0  0  0  0  0  0  0  0  0
  136.5561  149.7374  140.9435 C   0  0  0  0  0  0  0  0  0  0  0  0
  136.3179  151.4521  144.2824 C   0  0  0  0  0  0  0  0  0  0  0  0
  135.1064  151.7136  145.3229 C   0  0  0  0  0  0  0  0  0  0  0  0
  134.0717  151.3145  145.5487 C   0  0  0  0  0  0  0  0  0  0  0  0
  137.5441  151.9641  144.7587 C   0  0  0  0  0  0  0  0  0  0  0  0
  135.7099  152.8845  146.1160 C   0  0  0  0  0  0  0  0  0  0  0  0
  1  2  1  0
  2  3  1  0
  2  4  2  0
  4  5  1  0
  5  6  2  0
  5  7  1  0
  6  8  1  0
  3  9  2  0
  6  9  1  0
  8 10  2  0
 10 11  1  0
 11 12  2  0
  7 13  2  0
 10 13  1  0
 11 14  1  0
M  END
$$$$
