
     RDKit          3D

 14 15  0  0  0  0  0  0  0  0999 V2000
  139.3423  149.9928  140.5892 C   0  0  0  0  0  0  0  0  0  0  0  0
  138.9530  149.9232  139.3662 C   0  0  0  0  0  0  0  0  0  0  0  0
  138.6126  150.1100  141.6424 C   0  0  0  0  0  0  0  0  0  0  0  0
  137.1875  149.8648  141.8313 C   0  0  0  0  0  0  0  0  0  0  0  0
  136.5143  149.7627  140.5785 C   0  0  0  0  0  0  0  0  0  0  0  0
  139.1422  150.4925  143.0862 C   0  0  0  0  0  0  0  0  0  0  0  0
  138.2697  151.1411  143.8764 C   0  0  0  0  0  0  0  0  0  0  0  0
  139.6670  149.8864  138.1606 C   0  0  0  0  0  0  0  0  0  0  0  0
  137.0386  149.6854  139.2154 C   0  0  0  0  0  0  0  0  0  0  0  0
  137.1519  151.2104  144.1348 C   0  0  0  0  0  0  0  0  0  0  0  0
  136.1829  150.5202  143.1931 C   0  0  0  0  0  0  0  0  0  0  0  0
  136.2059  151.7817  145.0924 C   0  0  0  0  0  0  0  0  0  0  0  0
  135.0648  151.4905  145.3865 C   0  0  0  0  0  0  0  0  0  0  0  0
  136.8101  152.9010  145.8413 O   0  0  0  0  0  0  0  0  0  0  0  0
  1  2  2  0
  1  3  1  0
  3  4  1  0
  4  5  2  0
  3  6  1  0
  6  7  2  0
  2  8  1  0
  2  9  1  0
  5  9  1  0
  7 10  1  0
  4 11  1  0
 10 11  2  0
 10 12  1  0
 12 13  1  0
 12 14  2  0
M  END
$$$$
