
     RDKit          3D

 14 15  0  0  0  0  0  0  0  0999 V2000
  140.3038  150.2150  139.4785 Cl  0  0  0  0  0  0  0  0  0  0  0  0
  138.6786  150.1874  140.5317 C   0  0  0  0  0  0  0  0  0  0  0  0
  137.6385  149.3840  140.0946 C   0  0  0  0  0  0  0  0  0  0  0  0
  139.0347  150.8837  141.6176 C   0  0  0  0  0  0  0  0  0  0  0  0
  136.4870  149.4739  141.0114 C   0  0  0  0  0  0  0  0  0  0  0  0
  136.6060  150.3319  142.1494 C   0  0  0  0  0  0  0  0  0  0  0  0
  135.4599  150.4857  143.0766 C   0  0  0  0  0  0  0  0  0  0  0  0
  135.8731  151.2537  144.3106 C   0  0  0  0  0  0  0  0  0  0  0  0
  137.1297  151.3206  144.7078 C   0  0  0  0  0  0  0  0  0  0  0  0
  137.9678  150.9688  142.5208 C   0  0  0  0  0  0  0  0  0  0  0  0
  138.1096  151.5072  143.8984 C   0  0  0  0  0  0  0  0  0  0  0  0
  135.2270  151.5969  145.6499 C   0  0  0  0  0  0  0  0  0  0  0  0
  134.7370  151.1109  146.4100 O   0  0  0  0  0  0  0  0  0  0  0  0
  135.4088  153.0103  145.5110 O   0  0  0  0  0  0  0  0  0  0  0  0
  1  2  1  0
  2  3  2  0
  2  4  1  0
  3  5  1  0
  5  6  2  0
  6  7  1  0
  7  8  1  0
  8  9  1  0
  4 10  2  0
  6 10  1  0
  9 11  1  0
 10 11  1  0
  8 12  1  0
 12 13  2  0
 12 14  1  0
M  END
$$$$
