
     RDKit          3D

 10 10  0  0  0  0  0  0  0  0999 V2000
  140.3038  150.2150  139.4785 Cl  0  0  0  0  0  0  0  0  0  0  0  0
  138.6786  150.1874  140.5317 C   0  0  0  0  0  0  0  0  0  0  0  0
  137.6385  149.3840  140.0946 C   0  0  0  0  0  0  0  0  0  0  0  0
  138.7732  150.9300  141.6509 C   0  0  0  0  0  0  0  0  0  0  0  0
  137.6842  150.8851  142.5415 C   0  0  0  0  0  0  0  0  0  0  0  0
  137.8367  151.5228  143.8907 C   0  0  0  0  0  0  0  0  0  0  0  0
  136.6459  150.1059  142.0575 C   0  0  0  0  0  0  0  0  0  0  0  0
  138.8378  152.0889  144.2793 O   0  0  0  0  0  0  0  0  0  0  0  0
  136.8476  151.4783  144.7730 O   0  0  0  0  0  0  0  0  0  0  0  0
  136.4846  149.4408  140.7637 C   0  0  0  0  0  0  0  0  0  0  0  0
  1  2  1  0
  2  3  1  0
  2  4  2  0
  4  5  1  0
  5  6  1  0
  5  7  2  0
  6  8  2  0
  6  9  1  0
  3 10  2  0
  7 10  1  0
M  END
$$$$
