
     RDKit          3D

 15 16  0  0  0  0  0  0  0  0999 V2000
  140.3038  150.2150  139.4785 Cl  0  0  0  0  0  0  0  0  0  0  0  0
  138.6786  150.1874  140.5317 C   0  0  0  0  0  0  0  0  0  0  0  0
  137.6385  149.3840  140.0946 C   0  0  0  0  0  0  0  0  0  0  0  0
  139.2404  150.7160  141.5759 C   0  0  0  0  0  0  0  0  0  0  0  0
  138.3592  151.0512  142.3776 C   0  0  0  0  0  0  0  0  0  0  0  0
  136.9526  150.5124  142.2952 C   0  0  0  0  0  0  0  0  0  0  0  0
  138.4072  151.7168  143.9009 C   0  0  0  0  0  0  0  0  0  0  0  0
  137.3935  148.7832  139.0047 C   0  0  0  0  0  0  0  0  0  0  0  0
  135.9042  150.8550  143.2900 C   0  0  0  0  0  0  0  0  0  0  0  0
  136.2681  151.2342  144.5831 C   0  0  0  0  0  0  0  0  0  0  0  0
  135.2221  151.2812  145.5804 C   0  0  0  0  0  0  0  0  0  0  0  0
  134.1739  150.7811  145.8228 C   0  0  0  0  0  0  0  0  0  0  0  0
  136.5348  149.9755  141.0417 C   0  0  0  0  0  0  0  0  0  0  0  0
  137.6335  151.6957  144.9219 C   0  0  0  0  0  0  0  0  0  0  0  0
  135.7645  152.3241  146.5238 C   0  0  0  0  0  0  0  0  0  0  0  0
  1  2  1  0
  2  3  1  0
  2  4  2  0
  4  5  1  0
  5  6  2  0
  5  7  1  0
  3  8  1  0
  6  9  1  0
  9 10  2  0
 10 11  1  0
 11 12  2  0
  3 13  2  0
  6 13  1  0
  7 14  1  0
 10 14  1  0
 11 15  1  0
M  END
$$$$
