
     RDKit          3D

 15 16  0  0  0  0  0  0  0  0999 V2000
  139.3423  149.9928  140.5892 C   0  0  0  0  0  0  0  0  0  0  0  0
  138.9530  149.9232  139.3662 C   0  0  0  0  0  0  0  0  0  0  0  0
  138.6126  150.1100  141.6424 C   0  0  0  0  0  0  0  0  0  0  0  0
  137.1875  149.8648  141.8313 C   0  0  0  0  0  0  0  0  0  0  0  0
  136.5143  149.7627  140.5785 C   0  0  0  0  0  0  0  0  0  0  0  0
  139.1751  150.3995  143.1329 C   0  0  0  0  0  0  0  0  0  0  0  0
  138.2221  150.9725  144.0846 C   0  0  0  0  0  0  0  0  0  0  0  0
  139.6660  149.8809  138.1670 C   0  0  0  0  0  0  0  0  0  0  0  0
  136.9203  150.8967  143.8605 C   0  0  0  0  0  0  0  0  0  0  0  0
  136.9668  149.6661  139.2303 C   0  0  0  0  0  0  0  0  0  0  0  0
  136.2745  150.3051  142.8110 C   0  0  0  0  0  0  0  0  0  0  0  0
  138.0419  149.7656  138.6699 C   0  0  0  0  0  0  0  0  0  0  0  0
  136.1169  151.4375  145.0534 C   0  0  0  0  0  0  0  0  0  0  0  0
  136.4312  151.5039  146.2907 C   0  0  0  0  0  0  0  0  0  0  0  0
  135.2705  152.3767  144.9350 C   0  0  0  0  0  0  0  0  0  0  0  0
  1  2  2  0
  1  3  1  0
  3  4  1  0
  4  5  2  0
  3  6  1  0
  6  7  2  0
  2  8  1  0
  7  9  1  0
  5 10  1  0
  4 11  1  0
  9 11  2  0
  2 12  1  0
 10 12  2  0
  9 13  1  0
 13 14  1  0
 13 15  1  0
M  END
$$$$
