
     RDKit          3D

 10 11  0  0  0  0  0  0  0  0999 V2000
  139.2621  151.0930  142.4042 C   0  0  0  0  0  0  0  0  0  0  0  0
  138.8616  152.1304  142.9039 C   0  0  0  0  0  0  0  0  0  0  0  0
  137.7832  151.8907  143.8937 C   0  0  0  0  0  0  0  0  0  0  0  0
  138.6288  149.7794  142.4933 C   0  0  0  0  0  0  0  0  0  0  0  0
  137.3135  153.0103  144.6672 C   0  0  0  0  0  0  0  0  0  0  0  0
  136.1188  152.8988  145.2395 C   0  0  0  0  0  0  0  0  0  0  0  0
  136.9994  150.7047  144.2524 C   0  0  0  0  0  0  0  0  0  0  0  0
  135.4731  151.6850  145.2841 C   0  0  0  0  0  0  0  0  0  0  0  0
  135.9700  150.6579  144.9616 C   0  0  0  0  0  0  0  0  0  0  0  0
  137.6574  149.5928  143.5355 N   0  0  0  0  0  0  0  0  0  0  0  0
  1  2  1  0
  2  3  2  0
  1  4  2  0
  3  5  1  0
  5  6  2  0
  3  7  1  0
  6  8  1  0
  7  9  1  0
  8  9  2  0
  4 10  1  0
  7 10  2  0
M  END
$$$$
