
     RDKit          3D

 15 16  0  0  0  0  0  0  0  0999 V2000
  140.3038  150.2150  139.4785 Cl  0  0  0  0  0  0  0  0  0  0  0  0
  138.6786  150.1874  140.5317 C   0  0  0  0  0  0  0  0  0  0  0  0
  137.6385  149.3840  140.0946 C   0  0  0  0  0  0  0  0  0  0  0  0
  138.7506  150.9507  141.6713 C   0  0  0  0  0  0  0  0  0  0  0  0
  136.5527  149.6212  140.7745 C   0  0  0  0  0  0  0  0  0  0  0  0
  135.2919  149.0327  140.1418 C   0  0  0  0  0  0  0  0  0  0  0  0
  136.5287  150.4782  141.8364 C   0  0  0  0  0  0  0  0  0  0  0  0
  135.3193  150.6924  142.7156 C   0  0  0  0  0  0  0  0  0  0  0  0
  135.8151  151.3358  144.0288 C   0  0  0  0  0  0  0  0  0  0  0  0
  137.7454  151.0900  142.3267 C   0  0  0  0  0  0  0  0  0  0  0  0
  135.2438  151.1717  145.2002 C   0  0  0  0  0  0  0  0  0  0  0  0
  136.8017  152.3192  144.0193 C   0  0  0  0  0  0  0  0  0  0  0  0
  135.7671  151.7879  146.3674 C   0  0  0  0  0  0  0  0  0  0  0  0
  137.9886  151.8619  143.4124 N   0  0  0  0  0  0  0  0  0  0  0  0
  135.0335  151.8845  147.5451 C   0  0  0  0  0  0  0  0  0  0  0  0
  1  2  1  0
  2  3  2  0
  2  4  1  0
  3  5  1  0
  5  6  1  0
  5  7  2  0
  7  8  1  0
  8  9  1  0
  4 10  2  0
  7 10  1  0
  9 11  2  3
  9 12  1  0
 11 13  1  0
 10 14  1  0
 12 14  2  0
 13 15  1  0
M  END
$$$$
