
     RDKit          3D

 10 10  0  0  0  0  0  0  0  0999 V2000
  139.5350  150.8913  142.2315 C   0  0  0  0  0  0  0  0  0  0  0  0
  139.0135  150.3971  141.0590 C   0  0  0  0  0  0  0  0  0  0  0  0
  138.6977  150.9503  143.4041 C   0  0  0  0  0  0  0  0  0  0  0  0
  137.7106  149.9444  141.0466 C   0  0  0  0  0  0  0  0  0  0  0  0
  137.5168  150.9379  143.4786 C   0  0  0  0  0  0  0  0  0  0  0  0
  136.6712  151.1288  144.6803 C   0  0  0  0  0  0  0  0  0  0  0  0
  139.9778  150.4403  139.9186 C   0  0  0  0  0  0  0  0  0  0  0  0
  135.5917  151.9312  144.4988 C   0  0  0  0  0  0  0  0  0  0  0  0
  136.7696  150.3577  142.2620 C   0  0  0  0  0  0  0  0  0  0  0  0
  135.3013  152.8545  145.5603 C   0  0  0  0  0  0  0  0  0  0  0  0
  1  2  2  0
  1  3  1  0
  2  4  1  0
  3  5  2  0
  5  6  1  0
  2  7  1  0
  6  8  1  0
  4  9  2  0
  5  9  1  0
  8 10  1  0
M  END
$$$$
