
     RDKit          3D

 15 17  0  0  0  0  0  0  0  0999 V2000
  139.5546  150.5070  140.4440 C   0  0  0  0  0  0  0  0  0  0  0  0
  139.2168  150.0150  139.3722 C   0  0  0  0  0  0  0  0  0  0  0  0
  138.8581  150.3073  141.5852 C   0  0  0  0  0  0  0  0  0  0  0  0
  139.2290  150.3516  142.8905 C   0  0  0  0  0  0  0  0  0  0  0  0
  138.3519  151.0008  143.9747 C   0  0  0  0  0  0  0  0  0  0  0  0
  137.3998  151.4263  143.6194 C   0  0  0  0  0  0  0  0  0  0  0  0
  136.5329  152.2351  144.5998 C   0  0  0  0  0  0  0  0  0  0  0  0
  136.9653  151.2809  142.2541 C   0  0  0  0  0  0  0  0  0  0  0  0
  137.7067  150.6216  141.4269 C   0  0  0  0  0  0  0  0  0  0  0  0
  136.9211  153.4568  145.0572 C   0  0  0  0  0  0  0  0  0  0  0  0
  135.6699  151.7277  145.3014 C   0  0  0  0  0  0  0  0  0  0  0  0
  137.8081  149.9498  139.0347 C   0  0  0  0  0  0  0  0  0  0  0  0
  135.1546  152.4510  146.2481 C   0  0  0  0  0  0  0  0  0  0  0  0
  136.7548  150.2253  140.3004 C   0  0  0  0  0  0  0  0  0  0  0  0
  135.8263  153.6342  146.3664 C   0  0  0  0  0  0  0  0  0  0  0  0
  1  2  2  0
  1  3  1  0
  3  4  1  0
  4  5  2  0
  5  6  1  0
  6  7  1  0
  6  8  2  0
  3  9  2  0
  8  9  1  0
  7 10  1  0
  7 11  2  0
  2 12  1  0
 11 13  1  0
  9 14  1  0
 12 14  2  0
 10 15  1  0
 13 15  1  0
M  END
$$$$
