
     RDKit          3D

 10 10  0  0  0  0  0  0  0  0999 V2000
  138.7090  151.1480  142.6270 C   0  0  0  0  0  0  0  0  0  0  0  0
  138.5232  151.9372  143.5110 C   0  0  0  0  0  0  0  0  0  0  0  0
  137.3801  151.6562  144.3958 C   0  0  0  0  0  0  0  0  0  0  0  0
  139.7036  151.1026  141.6212 C   0  0  0  0  0  0  0  0  0  0  0  0
  139.4766  150.8806  140.3205 C   0  0  0  0  0  0  0  0  0  0  0  0
  136.7646  152.4560  145.3386 C   0  0  0  0  0  0  0  0  0  0  0  0
  135.4390  152.2626  145.7516 C   0  0  0  0  0  0  0  0  0  0  0  0
  138.2176  150.1947  140.1399 C   0  0  0  0  0  0  0  0  0  0  0  0
  137.3138  149.9311  141.2039 C   0  0  0  0  0  0  0  0  0  0  0  0
  137.5139  150.3876  142.4288 C   0  0  0  0  0  0  0  0  0  0  0  0
  1  2  1  0
  2  3  2  3
  1  4  1  0
  4  5  2  0
  3  6  1  0
  6  7  1  0
  5  8  1  0
  8  9  2  0
  1 10  2  0
  9 10  1  0
M  END
$$$$
