
     RDKit          3D

 10 11  0  0  0  0  0  0  0  0999 V2000
  139.3423  149.9928  140.5892 C   0  0  0  0  0  0  0  0  0  0  0  0
  138.9530  149.9232  139.3662 C   0  0  0  0  0  0  0  0  0  0  0  0
  138.6126  150.1100  141.6424 C   0  0  0  0  0  0  0  0  0  0  0  0
  137.1875  149.8648  141.8313 C   0  0  0  0  0  0  0  0  0  0  0  0
  136.5143  149.7627  140.5785 C   0  0  0  0  0  0  0  0  0  0  0  0
  139.1422  150.4925  143.0862 C   0  0  0  0  0  0  0  0  0  0  0  0
  138.1958  151.0001  144.0544 C   0  0  0  0  0  0  0  0  0  0  0  0
  136.4981  150.0900  143.0284 C   0  0  0  0  0  0  0  0  0  0  0  0
  137.0940  150.6540  144.0834 C   0  0  0  0  0  0  0  0  0  0  0  0
  137.4700  149.6585  139.0680 C   0  0  0  0  0  0  0  0  0  0  0  0
  1  2  2  0
  1  3  1  0
  3  4  1  0
  4  5  2  0
  3  6  1  0
  6  7  2  0
  4  8  1  0
  7  9  1  0
  8  9  2  0
  2 10  1  0
  5 10  1  0
M  END
$$$$
