
     RDKit          3D

 10 10  0  0  0  0  0  0  0  0999 V2000
  140.3038  150.2150  139.4785 Cl  0  0  0  0  0  0  0  0  0  0  0  0
  138.6786  150.1874  140.5317 C   0  0  0  0  0  0  0  0  0  0  0  0
  137.6385  149.3840  140.0946 C   0  0  0  0  0  0  0  0  0  0  0  0
  136.4399  149.4579  140.8211 C   0  0  0  0  0  0  0  0  0  0  0  0
  138.9830  150.6971  141.6805 C   0  0  0  0  0  0  0  0  0  0  0  0
  138.2331  150.9043  142.4752 C   0  0  0  0  0  0  0  0  0  0  0  0
  136.4508  150.1889  142.1260 C   0  0  0  0  0  0  0  0  0  0  0  0
  136.9669  150.6920  142.8292 C   0  0  0  0  0  0  0  0  0  0  0  0
  136.3806  151.1563  144.2047 C   0  0  0  0  0  0  0  0  0  0  0  0
  135.1721  151.7710  144.2417 C   0  0  0  0  0  0  0  0  0  0  0  0
  1  2  1  0
  2  3  2  0
  3  4  1  0
  2  5  1  0
  5  6  2  0
  4  7  2  0
  6  8  1  0
  7  8  1  0
  8  9  1  0
  9 10  1  0
M  END
$$$$
