
     RDKit          3D

 10 10  0  0  0  0  0  0  0  0999 V2000
  138.9705  151.3131  142.5679 C   0  0  0  0  0  0  0  0  0  0  0  0
  138.6042  152.0888  143.2654 C   0  0  0  0  0  0  0  0  0  0  0  0
  137.4887  151.7640  144.1910 C   0  0  0  0  0  0  0  0  0  0  0  0
  139.9944  151.3872  141.4253 C   0  0  0  0  0  0  0  0  0  0  0  0
  137.1404  150.3706  144.0333 C   0  0  0  0  0  0  0  0  0  0  0  0
  139.8149  150.4762  140.3126 C   0  0  0  0  0  0  0  0  0  0  0  0
  140.6005  150.5388  139.1317 C   0  0  0  0  0  0  0  0  0  0  0  0
  138.3107  149.8814  142.5016 C   0  0  0  0  0  0  0  0  0  0  0  0
  137.5321  149.5834  143.4454 C   0  0  0  0  0  0  0  0  0  0  0  0
  136.9189  152.8706  145.1977 C   0  0  0  0  0  0  0  0  0  0  0  0
  1  2  1  0
  2  3  2  0
  1  4  1  0
  3  5  1  0
  4  6  2  3
  6  7  1  0
  1  8  2  0
  5  9  2  0
  8  9  1  0
  3 10  1  0
M  END
$$$$
