
     RDKit          3D

 10 10  0  0  0  0  0  0  0  0999 V2000
  139.5350  150.8913  142.2315 C   0  0  0  0  0  0  0  0  0  0  0  0
  139.0135  150.3971  141.0590 C   0  0  0  0  0  0  0  0  0  0  0  0
  138.6977  150.9503  143.4041 C   0  0  0  0  0  0  0  0  0  0  0  0
  137.7106  149.9444  141.0466 C   0  0  0  0  0  0  0  0  0  0  0  0
  137.5168  150.9379  143.4786 C   0  0  0  0  0  0  0  0  0  0  0  0
  136.8378  150.2911  142.2747 C   0  0  0  0  0  0  0  0  0  0  0  0
  139.8806  150.2562  139.7288 C   0  0  0  0  0  0  0  0  0  0  0  0
  139.3080  150.2847  138.6017 C   0  0  0  0  0  0  0  0  0  0  0  0
  141.2313  150.2556  139.9278 C   0  0  0  0  0  0  0  0  0  0  0  0
  136.5510  151.3414  144.7861 C   0  0  0  0  0  0  0  0  0  0  0  0
  1  2  2  0
  1  3  1  0
  2  4  1  0
  3  5  2  0
  4  6  2  0
  5  6  1  0
  2  7  1  0
  7  8  1  0
  7  9  2  0
  5 10  1  0
M  END
$$$$
