
     RDKit          3D

 10 11  0  0  0  0  0  0  0  0999 V2000
  139.2621  151.0930  142.4042 C   0  0  0  0  0  0  0  0  0  0  0  0
  138.8616  152.1304  142.9039 C   0  0  0  0  0  0  0  0  0  0  0  0
  137.7832  151.8907  143.8937 C   0  0  0  0  0  0  0  0  0  0  0  0
  138.6288  149.7794  142.4933 C   0  0  0  0  0  0  0  0  0  0  0  0
  137.3135  153.0103  144.6672 C   0  0  0  0  0  0  0  0  0  0  0  0
  136.0160  152.9304  145.3412 C   0  0  0  0  0  0  0  0  0  0  0  0
  135.3275  151.7300  145.1897 C   0  0  0  0  0  0  0  0  0  0  0  0
  137.2771  150.4857  143.8438 C   0  0  0  0  0  0  0  0  0  0  0  0
  136.0799  150.4841  144.9375 C   0  0  0  0  0  0  0  0  0  0  0  0
  137.6888  149.5155  143.3523 N   0  0  0  0  0  0  0  0  0  0  0  0
  1  2  1  0
  2  3  2  0
  1  4  2  0
  3  5  1  0
  5  6  2  0
  6  7  1  0
  3  8  1  0
  7  9  1  0
  8  9  1  0
  4 10  1  0
  8 10  2  0
M  END
$$$$
