
     RDKit          3D

 10 10  0  0  0  0  0  0  0  0999 V2000
  138.9705  151.3131  142.5679 C   0  0  0  0  0  0  0  0  0  0  0  0
  138.6042  152.0888  143.2654 C   0  0  0  0  0  0  0  0  0  0  0  0
  139.7531  151.4376  141.3509 C   0  0  0  0  0  0  0  0  0  0  0  0
  137.7656  151.7117  144.3553 C   0  0  0  0  0  0  0  0  0  0  0  0
  139.7145  150.4722  140.2501 C   0  0  0  0  0  0  0  0  0  0  0  0
  138.2639  149.9216  142.8070 C   0  0  0  0  0  0  0  0  0  0  0  0
  140.4145  150.5407  139.2320 C   0  0  0  0  0  0  0  0  0  0  0  0
  137.2981  152.5702  145.4110 O   0  0  0  0  0  0  0  0  0  0  0  0
  136.0671  152.9177  145.2324 C   0  0  0  0  0  0  0  0  0  0  0  0
  137.6602  150.3380  144.1393 C   0  0  0  0  0  0  0  0  0  0  0  0
  1  2  1  0
  1  3  1  0
  2  4  2  0
  3  5  2  3
  1  6  2  0
  5  7  1  0
  4  8  1  0
  8  9  1  0
  4 10  1  0
  6 10  1  0
M  END
$$$$
