
     RDKit          3D

 10 10  0  0  0  0  0  0  0  0999 V2000
  140.3038  150.2150  139.4785 Cl  0  0  0  0  0  0  0  0  0  0  0  0
  138.6786  150.1874  140.5317 C   0  0  0  0  0  0  0  0  0  0  0  0
  137.6385  149.3840  140.0946 C   0  0  0  0  0  0  0  0  0  0  0  0
  139.0347  150.8837  141.6176 C   0  0  0  0  0  0  0  0  0  0  0  0
  136.4870  149.4739  141.0114 C   0  0  0  0  0  0  0  0  0  0  0  0
  135.2468  148.9969  140.4739 C   0  0  0  0  0  0  0  0  0  0  0  0
  136.7778  150.2789  142.0941 C   0  0  0  0  0  0  0  0  0  0  0  0
  135.6337  150.4006  143.1290 C   0  0  0  0  0  0  0  0  0  0  0  0
  137.9639  150.9221  142.5233 C   0  0  0  0  0  0  0  0  0  0  0  0
  138.1974  151.6615  143.8798 C   0  0  0  0  0  0  0  0  0  0  0  0
  1  2  1  0
  2  3  2  0
  2  4  1  0
  3  5  1  0
  5  6  1  0
  5  7  2  0
  7  8  1  0
  4  9  2  0
  7  9  1  0
  9 10  1  0
M  END
$$$$
