
     RDKit          3D

 10 10  0  0  0  0  0  0  0  0999 V2000
  139.3423  149.9928  140.5892 C   0  0  0  0  0  0  0  0  0  0  0  0
  138.9530  149.9232  139.3662 C   0  0  0  0  0  0  0  0  0  0  0  0
  138.6126  150.1100  141.6424 C   0  0  0  0  0  0  0  0  0  0  0  0
  137.1875  149.8648  141.8313 C   0  0  0  0  0  0  0  0  0  0  0  0
  136.5143  149.7627  140.5785 C   0  0  0  0  0  0  0  0  0  0  0  0
  139.1985  150.3843  143.0722 C   0  0  0  0  0  0  0  0  0  0  0  0
  135.0824  149.7120  140.3829 C   0  0  0  0  0  0  0  0  0  0  0  0
  139.6949  149.8503  138.1730 C   0  0  0  0  0  0  0  0  0  0  0  0
  137.2116  149.7225  139.2966 C   0  0  0  0  0  0  0  0  0  0  0  0
  138.4181  151.1915  143.8551 C   0  0  0  0  0  0  0  0  0  0  0  0
  1  2  2  0
  1  3  1  0
  3  4  1  0
  4  5  2  0
  3  6  1  0
  5  7  1  0
  2  8  1  0
  2  9  1  0
  5  9  1  0
  6 10  1  0
M  END
$$$$
