
     RDKit          3D

 11 12  0  0  0  0  0  0  0  0999 V2000
  139.2621  151.0930  142.4042 C   0  0  0  0  0  0  0  0  0  0  0  0
  138.8616  152.1304  142.9039 C   0  0  0  0  0  0  0  0  0  0  0  0
  137.7832  151.8907  143.8937 C   0  0  0  0  0  0  0  0  0  0  0  0
  138.6288  149.7794  142.4933 C   0  0  0  0  0  0  0  0  0  0  0  0
  137.3135  153.0103  144.6672 C   0  0  0  0  0  0  0  0  0  0  0  0
  136.0160  152.9304  145.3412 C   0  0  0  0  0  0  0  0  0  0  0  0
  135.3275  151.7300  145.1897 C   0  0  0  0  0  0  0  0  0  0  0  0
  137.4781  149.7816  143.3886 C   0  0  0  0  0  0  0  0  0  0  0  0
  137.1252  150.6409  144.1095 C   0  0  0  0  0  0  0  0  0  0  0  0
  134.1320  151.7083  145.9935 C   0  0  0  0  0  0  0  0  0  0  0  0
  136.1913  150.6656  144.8610 C   0  0  0  0  0  0  0  0  0  0  0  0
  1  2  1  0
  2  3  2  0
  1  4  2  0
  3  5  1  0
  5  6  2  0
  6  7  1  0
  4  8  1  0
  3  9  1  0
  8  9  2  0
  7 10  1  0
  7 11  2  0
  9 11  1  0
M  END
$$$$
