
     RDKit          3D

  9  9  0  0  0  0  0  0  0  0999 V2000
  139.2621  151.0930  142.4042 C   0  0  0  0  0  0  0  0  0  0  0  0
  138.8616  152.1304  142.9039 C   0  0  0  0  0  0  0  0  0  0  0  0
  137.9119  151.7966  143.7821 C   0  0  0  0  0  0  0  0  0  0  0  0
  138.8318  150.4014  141.6013 C   0  0  0  0  0  0  0  0  0  0  0  0
  137.2899  150.4879  143.7063 C   0  0  0  0  0  0  0  0  0  0  0  0
  139.3830  149.8861  140.3213 C   0  0  0  0  0  0  0  0  0  0  0  0
  140.5714  149.7141  139.9845 O   0  0  0  0  0  0  0  0  0  0  0  0
  138.5377  149.7695  139.3042 O   0  0  0  0  0  0  0  0  0  0  0  0
  137.5941  149.7104  142.2154 C   0  0  0  0  0  0  0  0  0  0  0  0
  1  2  1  0
  2  3  2  0
  1  4  2  0
  3  5  1  0
  4  6  1  0
  6  7  1  0
  6  8  2  0
  4  9  1  0
  5  9  2  0
M  END
$$$$
