
     RDKit          3D

 11 11  0  0  0  0  0  0  0  0999 V2000
  138.9705  151.3131  142.5679 C   0  0  0  0  0  0  0  0  0  0  0  0
  138.6042  152.0888  143.2654 C   0  0  0  0  0  0  0  0  0  0  0  0
  137.6600  151.8318  144.0475 C   0  0  0  0  0  0  0  0  0  0  0  0
  136.5825  152.7511  144.5734 C   0  0  0  0  0  0  0  0  0  0  0  0
  135.5827  152.5121  145.5093 C   0  0  0  0  0  0  0  0  0  0  0  0
  139.9322  151.4080  141.3737 C   0  0  0  0  0  0  0  0  0  0  0  0
  135.6283  151.0416  145.7979 C   0  0  0  0  0  0  0  0  0  0  0  0
  139.6618  150.7206  140.2290 C   0  0  0  0  0  0  0  0  0  0  0  0
  140.5630  150.5753  139.1590 C   0  0  0  0  0  0  0  0  0  0  0  0
  136.6346  150.1605  145.2857 C   0  0  0  0  0  0  0  0  0  0  0  0
  137.4776  150.4689  144.5754 C   0  0  0  0  0  0  0  0  0  0  0  0
  1  2  2  3
  2  3  1  0
  3  4  1  0
  4  5  2  0
  1  6  1  0
  5  7  1  0
  6  8  2  3
  8  9  1  0
  7 10  2  0
  3 11  2  0
 10 11  1  0
M  END
$$$$
