
     RDKit          3D

 11 12  0  0  0  0  0  0  0  0999 V2000
  140.3038  150.2150  139.4785 Cl  0  0  0  0  0  0  0  0  0  0  0  0
  138.6786  150.1874  140.5317 C   0  0  0  0  0  0  0  0  0  0  0  0
  137.6385  149.3840  140.0946 C   0  0  0  0  0  0  0  0  0  0  0  0
  139.0347  150.8837  141.6176 C   0  0  0  0  0  0  0  0  0  0  0  0
  138.0498  150.8352  142.6903 C   0  0  0  0  0  0  0  0  0  0  0  0
  136.8411  150.0647  142.4034 C   0  0  0  0  0  0  0  0  0  0  0  0
  138.2581  151.5164  144.0216 C   0  0  0  0  0  0  0  0  0  0  0  0
  135.7627  150.2379  143.3682 C   0  0  0  0  0  0  0  0  0  0  0  0
  136.5479  149.5522  141.0861 C   0  0  0  0  0  0  0  0  0  0  0  0
  137.3027  151.8654  144.5788 C   0  0  0  0  0  0  0  0  0  0  0  0
  136.2204  151.2075  144.4866 C   0  0  0  0  0  0  0  0  0  0  0  0
  1  2  1  0
  2  3  2  0
  2  4  1  0
  4  5  2  0
  5  6  1  0
  5  7  1  0
  6  8  1  0
  3  9  1  0
  6  9  2  0
  7 10  1  0
  8 11  1  0
 10 11  2  0
M  END
$$$$
