
     RDKit          3D

  9  8  0  0  0  0  0  0  0  0999 V2000
  138.9705  151.3131  142.5679 C   0  0  0  0  0  0  0  0  0  0  0  0
  138.6042  152.0888  143.2654 C   0  0  0  0  0  0  0  0  0  0  0  0
  139.7531  151.4376  141.3509 C   0  0  0  0  0  0  0  0  0  0  0  0
  137.7656  151.7117  144.3553 C   0  0  0  0  0  0  0  0  0  0  0  0
  136.9071  152.4952  145.1793 C   0  0  0  0  0  0  0  0  0  0  0  0
  137.1222  153.8092  145.1376 C   0  0  0  0  0  0  0  0  0  0  0  0
  139.6293  150.4815  140.2032 C   0  0  0  0  0  0  0  0  0  0  0  0
  136.0801  151.9478  145.7184 C   0  0  0  0  0  0  0  0  0  0  0  0
  134.7280  152.4350  145.8102 C   0  0  0  0  0  0  0  0  0  0  0  0
  1  2  1  0
  1  3  1  0
  2  4  2  3
  4  5  1  0
  5  6  1  0
  3  7  1  0
  5  8  2  3
  8  9  1  0
M  END
$$$$
