
     RDKit          3D

 11 12  0  0  0  0  0  0  0  0999 V2000
  138.7090  151.1480  142.6270 C   0  0  0  0  0  0  0  0  0  0  0  0
  138.5232  151.9372  143.5110 C   0  0  0  0  0  0  0  0  0  0  0  0
  137.3801  151.6562  144.3958 C   0  0  0  0  0  0  0  0  0  0  0  0
  139.7036  151.1026  141.6212 C   0  0  0  0  0  0  0  0  0  0  0  0
  136.7239  150.4190  144.0179 C   0  0  0  0  0  0  0  0  0  0  0  0
  137.9015  150.0241  142.3223 C   0  0  0  0  0  0  0  0  0  0  0  0
  138.2278  149.2932  141.1442 C   0  0  0  0  0  0  0  0  0  0  0  0
  137.1510  152.6488  145.4050 C   0  0  0  0  0  0  0  0  0  0  0  0
  135.9440  153.1593  145.3482 C   0  0  0  0  0  0  0  0  0  0  0  0
  136.9377  149.7182  142.8069 N   0  0  0  0  0  0  0  0  0  0  0  0
  139.0522  150.0852  140.3650 C   0  0  0  0  0  0  0  0  0  0  0  0
  1  2  1  0
  2  3  2  0
  1  4  1  0
  3  5  1  0
  1  6  2  0
  6  7  1  0
  3  8  1  0
  8  9  1  0
  5 10  1  0
  6 10  1  0
  4 11  1  0
  7 11  1  0
M  END
$$$$
