
     RDKit          3D

 11 12  0  0  0  0  0  0  0  0999 V2000
  140.3038  150.2150  139.4785 Cl  0  0  0  0  0  0  0  0  0  0  0  0
  138.6786  150.1874  140.5317 C   0  0  0  0  0  0  0  0  0  0  0  0
  137.6385  149.3840  140.0946 C   0  0  0  0  0  0  0  0  0  0  0  0
  136.4399  149.4579  140.8211 C   0  0  0  0  0  0  0  0  0  0  0  0
  138.9830  150.6971  141.6805 C   0  0  0  0  0  0  0  0  0  0  0  0
  138.2331  150.9043  142.4752 C   0  0  0  0  0  0  0  0  0  0  0  0
  138.4970  151.5655  143.8665 C   0  0  0  0  0  0  0  0  0  0  0  0
  136.7758  150.4940  142.6016 C   0  0  0  0  0  0  0  0  0  0  0  0
  136.0045  149.9853  141.8528 C   0  0  0  0  0  0  0  0  0  0  0  0
  136.1683  151.1574  143.8641 C   0  0  0  0  0  0  0  0  0  0  0  0
  137.3233  151.6836  144.5499 N   0  0  0  0  0  0  0  0  0  0  0  0
  1  2  1  0
  2  3  2  0
  3  4  1  0
  2  5  1  0
  5  6  2  0
  6  7  1  0
  6  8  1  0
  4  9  2  0
  8  9  1  0
  8 10  2  0
  7 11  2  0
 10 11  1  0
M  END
$$$$
