
     RDKit          3D

  9  9  0  0  0  0  0  0  0  0999 V2000
  140.3038  150.2150  139.4785 Cl  0  0  0  0  0  0  0  0  0  0  0  0
  138.6786  150.1874  140.5317 C   0  0  0  0  0  0  0  0  0  0  0  0
  137.6385  149.3840  140.0946 C   0  0  0  0  0  0  0  0  0  0  0  0
  138.7506  150.9507  141.6713 C   0  0  0  0  0  0  0  0  0  0  0  0
  136.4554  149.4385  140.9265 C   0  0  0  0  0  0  0  0  0  0  0  0
  137.6760  150.9729  142.5318 C   0  0  0  0  0  0  0  0  0  0  0  0
  135.2205  148.9604  140.4644 C   0  0  0  0  0  0  0  0  0  0  0  0
  136.5454  150.2691  142.0990 C   0  0  0  0  0  0  0  0  0  0  0  0
  137.7556  151.7334  144.0294 Cl  0  0  0  0  0  0  0  0  0  0  0  0
  1  2  1  0
  2  3  2  0
  2  4  1  0
  3  5  1  0
  4  6  2  0
  5  7  1  0
  5  8  2  0
  6  8  1  0
  6  9  1  0
M  END
$$$$
