
     RDKit          3D

 11 12  0  0  0  0  0  0  0  0999 V2000
  138.9705  151.3131  142.5679 C   0  0  0  0  0  0  0  0  0  0  0  0
  138.6042  152.0888  143.2654 C   0  0  0  0  0  0  0  0  0  0  0  0
  137.6600  151.8318  144.0475 C   0  0  0  0  0  0  0  0  0  0  0  0
  138.4063  149.9008  142.6343 C   0  0  0  0  0  0  0  0  0  0  0  0
  137.0753  152.8701  144.9694 C   0  0  0  0  0  0  0  0  0  0  0  0
  135.8065  152.7064  145.6054 C   0  0  0  0  0  0  0  0  0  0  0  0
  136.6355  150.6806  144.4295 C   0  0  0  0  0  0  0  0  0  0  0  0
  135.2145  151.5088  145.5149 C   0  0  0  0  0  0  0  0  0  0  0  0
  133.9561  151.3992  146.3469 C   0  0  0  0  0  0  0  0  0  0  0  0
  135.7585  150.2633  145.0937 C   0  0  0  0  0  0  0  0  0  0  0  0
  137.4789  149.5617  143.4324 N   0  0  0  0  0  0  0  0  0  0  0  0
  1  2  2  0
  2  3  1  0
  1  4  1  0
  3  5  1  0
  5  6  2  0
  3  7  2  0
  6  8  1  0
  8  9  1  0
  7 10  1  0
  8 10  2  0
  4 11  1  0
  7 11  1  0
M  END
$$$$
