
     RDKit          3D

 11 11  0  0  0  0  0  0  0  0999 V2000
  140.3038  150.2150  139.4785 Cl  0  0  0  0  0  0  0  0  0  0  0  0
  138.6786  150.1874  140.5317 C   0  0  0  0  0  0  0  0  0  0  0  0
  137.6385  149.3840  140.0946 C   0  0  0  0  0  0  0  0  0  0  0  0
  138.7732  150.9300  141.6509 C   0  0  0  0  0  0  0  0  0  0  0  0
  137.6842  150.8851  142.5415 C   0  0  0  0  0  0  0  0  0  0  0  0
  136.4777  149.3730  140.9233 C   0  0  0  0  0  0  0  0  0  0  0  0
  135.2235  148.8639  140.5858 C   0  0  0  0  0  0  0  0  0  0  0  0
  137.8466  151.5979  143.8589 C   0  0  0  0  0  0  0  0  0  0  0  0
  136.6173  150.1923  142.1905 C   0  0  0  0  0  0  0  0  0  0  0  0
  138.8320  152.3447  144.1515 C   0  0  0  0  0  0  0  0  0  0  0  0
  136.6907  151.2477  144.6342 C   0  0  0  0  0  0  0  0  0  0  0  0
  1  2  1  0
  2  3  1  0
  2  4  2  0
  4  5  1  0
  3  6  2  0
  6  7  1  0
  5  8  1  0
  5  9  2  0
  6  9  1  0
  8 10  2  0
  8 11  1  0
M  END
$$$$
