
     RDKit          3D

  9  9  0  0  0  0  0  0  0  0999 V2000
  138.9705  151.3131  142.5679 C   0  0  0  0  0  0  0  0  0  0  0  0
  138.6042  152.0888  143.2654 C   0  0  0  0  0  0  0  0  0  0  0  0
  137.4887  151.7640  144.1910 C   0  0  0  0  0  0  0  0  0  0  0  0
  139.9944  151.3872  141.4253 C   0  0  0  0  0  0  0  0  0  0  0  0
  138.7742  149.9746  142.2086 C   0  0  0  0  0  0  0  0  0  0  0  0
  137.0936  150.4845  144.2535 C   0  0  0  0  0  0  0  0  0  0  0  0
  137.6557  149.4282  143.1756 C   0  0  0  0  0  0  0  0  0  0  0  0
  139.7681  150.8159  140.2480 C   0  0  0  0  0  0  0  0  0  0  0  0
  136.7590  152.7594  145.1841 C   0  0  0  0  0  0  0  0  0  0  0  0
  1  2  1  0
  2  3  2  0
  1  4  1  0
  1  5  2  0
  3  6  1  0
  5  7  1  0
  6  7  2  0
  4  8  1  0
  3  9  1  0
M  END
$$$$
