
     RDKit          3D

 11 12  0  0  0  0  0  0  0  0999 V2000
  140.3038  150.2150  139.4785 Cl  0  0  0  0  0  0  0  0  0  0  0  0
  138.6786  150.1874  140.5317 C   0  0  0  0  0  0  0  0  0  0  0  0
  137.6385  149.3840  140.0946 C   0  0  0  0  0  0  0  0  0  0  0  0
  139.2404  150.7160  141.5759 C   0  0  0  0  0  0  0  0  0  0  0  0
  138.2225  150.6931  142.6929 C   0  0  0  0  0  0  0  0  0  0  0  0
  136.9613  150.0836  142.4469 C   0  0  0  0  0  0  0  0  0  0  0  0
  135.9487  150.2526  143.4885 C   0  0  0  0  0  0  0  0  0  0  0  0
  136.5588  149.5578  141.1237 C   0  0  0  0  0  0  0  0  0  0  0  0
  136.5098  150.3533  144.7853 C   0  0  0  0  0  0  0  0  0  0  0  0
  137.7743  150.8227  145.0401 C   0  0  0  0  0  0  0  0  0  0  0  0
  138.4660  151.1657  144.0693 C   0  0  0  0  0  0  0  0  0  0  0  0
  1  2  1  0
  2  3  1  0
  2  4  2  0
  4  5  1  0
  5  6  2  0
  6  7  1  0
  3  8  2  0
  6  8  1  0
  7  9  1  0
  9 10  1  0
  5 11  1  0
 10 11  2  0
M  END
$$$$
