
     RDKit          3D

 11 12  0  0  0  0  0  0  0  0999 V2000
  138.7090  151.1480  142.6270 C   0  0  0  0  0  0  0  0  0  0  0  0
  138.5232  151.9372  143.5110 C   0  0  0  0  0  0  0  0  0  0  0  0
  137.3801  151.6562  144.3958 C   0  0  0  0  0  0  0  0  0  0  0  0
  139.7036  151.1026  141.6212 C   0  0  0  0  0  0  0  0  0  0  0  0
  136.7239  150.4190  144.0179 C   0  0  0  0  0  0  0  0  0  0  0  0
  137.9015  150.0241  142.3223 C   0  0  0  0  0  0  0  0  0  0  0  0
  138.2278  149.2932  141.1442 C   0  0  0  0  0  0  0  0  0  0  0  0
  135.6391  150.1367  145.0898 C   0  0  0  0  0  0  0  0  0  0  0  0
  136.8872  149.7665  143.1406 N   0  0  0  0  0  0  0  0  0  0  0  0
  139.5805  150.1759  140.5979 C   0  0  0  0  0  0  0  0  0  0  0  0
  140.2688  150.4135  139.7051 C   0  0  0  0  0  0  0  0  0  0  0  0
  1  2  1  0
  2  3  2  0
  1  4  1  0
  3  5  1  0
  1  6  2  0
  6  7  1  0
  5  8  1  0
  5  9  2  0
  6  9  1  0
  4 10  1  0
  7 10  1  0
 10 11  1  0
M  END
$$$$
