
     RDKit          3D

  9  9  0  0  0  0  0  0  0  0999 V2000
  140.3019  150.2145  139.4802 Cl  0  0  0  0  0  0  0  0  0  0  0  0
  138.6758  150.1820  140.5311 C   0  0  0  0  0  0  0  0  0  0  0  0
  137.6364  149.3800  140.0902 C   0  0  0  0  0  0  0  0  0  0  0  0
  139.0293  150.8783  141.6179 C   0  0  0  0  0  0  0  0  0  0  0  0
  138.0425  150.8315  142.6892 C   0  0  0  0  0  0  0  0  0  0  0  0
  136.8327  150.0626  142.4004 C   0  0  0  0  0  0  0  0  0  0  0  0
  137.3699  148.8634  138.9180 C   0  0  0  0  0  0  0  0  0  0  0  0
  136.4042  149.6183  141.2328 C   0  0  0  0  0  0  0  0  0  0  0  0
  138.3113  151.4650  144.1625 Cl  0  0  0  0  0  0  0  0  0  0  0  0
  1  2  1  0
  2  3  2  0
  2  4  1  0
  4  5  2  0
  5  6  1  0
  3  7  1  0
  3  8  1  0
  6  8  2  0
  5  9  1  0
M  END
$$$$
