
     RDKit          3D

 11 11  0  0  0  0  0  0  0  0999 V2000
  138.9697  151.3146  142.5684 C   0  0  0  0  0  0  0  0  0  0  0  0
  138.6018  152.0883  143.2657 C   0  0  0  0  0  0  0  0  0  0  0  0
  137.4864  151.7371  144.1980 C   0  0  0  0  0  0  0  0  0  0  0  0
  139.9864  151.4011  141.4219 C   0  0  0  0  0  0  0  0  0  0  0  0
  136.7358  152.5376  145.0264 C   0  0  0  0  0  0  0  0  0  0  0  0
  139.7034  150.7343  140.1991 C   0  0  0  0  0  0  0  0  0  0  0  0
  137.0180  153.8817  145.0034 C   0  0  0  0  0  0  0  0  0  0  0  0
  135.6277  152.1340  145.3254 C   0  0  0  0  0  0  0  0  0  0  0  0
  138.5726  149.8410  140.3380 C   0  0  0  0  0  0  0  0  0  0  0  0
  138.0662  150.1971  142.2107 C   0  0  0  0  0  0  0  0  0  0  0  0
  137.7786  149.5479  141.2943 C   0  0  0  0  0  0  0  0  0  0  0  0
  1  2  1  0
  2  3  2  3
  1  4  1  0
  3  5  1  0
  4  6  2  0
  5  7  1  0
  5  8  2  0
  6  9  1  0
  1 10  2  0
  9 11  2  0
 10 11  1  0
M  END
$$$$
