
     RDKit          3D

 11 12  0  0  0  0  0  0  0  0999 V2000
  140.3019  150.2145  139.4802 Cl  0  0  0  0  0  0  0  0  0  0  0  0
  138.6758  150.1820  140.5311 C   0  0  0  0  0  0  0  0  0  0  0  0
  137.6364  149.3800  140.0902 C   0  0  0  0  0  0  0  0  0  0  0  0
  136.4360  149.4525  140.8154 C   0  0  0  0  0  0  0  0  0  0  0  0
  138.9773  150.6955  141.6819 C   0  0  0  0  0  0  0  0  0  0  0  0
  136.5018  150.3461  141.8117 C   0  0  0  0  0  0  0  0  0  0  0  0
  135.2689  150.6056  142.7086 C   0  0  0  0  0  0  0  0  0  0  0  0
  137.6963  150.9668  142.4020 C   0  0  0  0  0  0  0  0  0  0  0  0
  135.4565  150.8158  144.0625 C   0  0  0  0  0  0  0  0  0  0  0  0
  136.7210  150.9193  144.6714 C   0  0  0  0  0  0  0  0  0  0  0  0
  137.7710  151.3455  143.8169 C   0  0  0  0  0  0  0  0  0  0  0  0
  1  2  1  0
  2  3  2  0
  3  4  1  0
  2  5  1  0
  4  6  2  0
  6  7  1  0
  5  8  2  0
  6  8  1  0
  7  9  1  0
  9 10  1  0
  8 11  1  0
 10 11  1  0
M  END
$$$$
