
     RDKit          3D

 11 11  0  0  0  0  0  0  0  0999 V2000
  139.2620  151.0921  142.4039 C   0  0  0  0  0  0  0  0  0  0  0  0
  138.8618  152.1315  142.9023 C   0  0  0  0  0  0  0  0  0  0  0  0
  137.9130  151.7995  143.7812 C   0  0  0  0  0  0  0  0  0  0  0  0
  138.8259  150.3979  141.6057 C   0  0  0  0  0  0  0  0  0  0  0  0
  137.6638  149.9538  141.7688 C   0  0  0  0  0  0  0  0  0  0  0  0
  136.7250  151.0112  143.4740 C   0  0  0  0  0  0  0  0  0  0  0  0
  136.5486  150.2645  142.7010 C   0  0  0  0  0  0  0  0  0  0  0  0
  135.6014  151.4064  144.6451 C   0  0  0  0  0  0  0  0  0  0  0  0
  139.6081  149.6337  140.4145 C   0  0  0  0  0  0  0  0  0  0  0  0
  140.8131  150.0858  140.0916 C   0  0  0  0  0  0  0  0  0  0  0  0
  140.8834  150.7567  138.8534 C   0  0  0  0  0  0  0  0  0  0  0  0
  1  2  1  0
  2  3  2  0
  1  4  2  0
  4  5  1  0
  3  6  1  0
  5  7  1  0
  6  7  2  0
  6  8  1  0
  4  9  1  0
  9 10  1  0
 10 11  2  0
M  END
$$$$
