
     RDKit          3D

 11 11  0  0  0  0  0  0  0  0999 V2000
  138.7240  151.5758  143.3184 C   0  0  0  0  0  0  0  0  0  0  0  0
  137.9193  152.3258  143.7536 C   0  0  0  0  0  0  0  0  0  0  0  0
  136.7526  151.8075  144.4391 C   0  0  0  0  0  0  0  0  0  0  0  0
  136.7825  150.4607  144.6808 C   0  0  0  0  0  0  0  0  0  0  0  0
  138.7110  150.3798  142.9931 C   0  0  0  0  0  0  0  0  0  0  0  0
  139.6064  149.6235  142.1662 C   0  0  0  0  0  0  0  0  0  0  0  0
  137.6332  149.7033  143.8880 C   0  0  0  0  0  0  0  0  0  0  0  0
  135.5540  152.5724  145.0968 C   0  0  0  0  0  0  0  0  0  0  0  0
  139.4687  150.0396  140.7541 C   0  0  0  0  0  0  0  0  0  0  0  0
  140.3039  149.4936  139.7348 C   0  0  0  0  0  0  0  0  0  0  0  0
  141.5737  149.6892  139.7612 C   0  0  0  0  0  0  0  0  0  0  0  0
  1  2  1  0
  2  3  2  0
  3  4  1  0
  1  5  2  0
  5  6  1  0
  4  7  2  0
  5  7  1  0
  3  8  1  0
  6  9  1  0
  9 10  1  0
 10 11  1  0
M  END
$$$$
