
     RDKit          3D

  9  9  0  0  0  0  0  0  0  0999 V2000
  140.3019  150.2145  139.4802 Cl  0  0  0  0  0  0  0  0  0  0  0  0
  138.6758  150.1820  140.5311 C   0  0  0  0  0  0  0  0  0  0  0  0
  137.6364  149.3800  140.0902 C   0  0  0  0  0  0  0  0  0  0  0  0
  136.4360  149.4525  140.8154 C   0  0  0  0  0  0  0  0  0  0  0  0
  138.8098  150.8876  141.7036 C   0  0  0  0  0  0  0  0  0  0  0  0
  137.9913  150.9386  142.4952 C   0  0  0  0  0  0  0  0  0  0  0  0
  135.1919  149.1119  140.4183 C   0  0  0  0  0  0  0  0  0  0  0  0
  136.6025  150.2564  142.0706 C   0  0  0  0  0  0  0  0  0  0  0  0
  137.8501  151.7026  143.9590 C   0  0  0  0  0  0  0  0  0  0  0  0
  1  2  1  0
  2  3  2  0
  3  4  1  0
  2  5  1  0
  5  6  2  0
  4  7  1  0
  4  8  2  0
  6  8  1  0
  6  9  1  0
M  END
$$$$
