
     RDKit          3D

 12 12  0  0  0  0  0  0  0  0999 V2000
  140.3019  150.2145  139.4802 Cl  0  0  0  0  0  0  0  0  0  0  0  0
  138.6758  150.1820  140.5311 C   0  0  0  0  0  0  0  0  0  0  0  0
  137.6364  149.3800  140.0902 C   0  0  0  0  0  0  0  0  0  0  0  0
  138.7467  150.9432  141.6725 C   0  0  0  0  0  0  0  0  0  0  0  0
  137.7505  150.8693  142.6256 C   0  0  0  0  0  0  0  0  0  0  0  0
  137.6039  148.8949  138.7412 C   0  0  0  0  0  0  0  0  0  0  0  0
  136.4850  149.4498  140.9065 C   0  0  0  0  0  0  0  0  0  0  0  0
  137.8432  151.5191  143.8923 C   0  0  0  0  0  0  0  0  0  0  0  0
  136.5395  150.1793  142.1832 C   0  0  0  0  0  0  0  0  0  0  0  0
  136.7293  151.5347  144.7433 C   0  0  0  0  0  0  0  0  0  0  0  0
  136.2158  150.5776  145.2499 C   0  0  0  0  0  0  0  0  0  0  0  0
  136.0740  152.6538  144.9072 C   0  0  0  0  0  0  0  0  0  0  0  0
  1  2  1  0
  2  3  2  0
  2  4  1  0
  4  5  2  0
  3  6  1  0
  3  7  1  0
  5  8  1  0
  5  9  1  0
  7  9  2  0
  8 10  1  0
 10 11  2  0
 10 12  1  0
M  END
$$$$
