
     RDKit          3D

 12 12  0  0  0  0  0  0  0  0999 V2000
  139.3428  149.9936  140.5898 C   0  0  0  0  0  0  0  0  0  0  0  0
  138.9752  149.9369  139.3605 C   0  0  0  0  0  0  0  0  0  0  0  0
  138.5862  150.0774  141.6376 C   0  0  0  0  0  0  0  0  0  0  0  0
  137.6061  149.8652  139.0267 C   0  0  0  0  0  0  0  0  0  0  0  0
  136.7960  149.6544  140.0716 C   0  0  0  0  0  0  0  0  0  0  0  0
  139.0847  150.3093  143.0275 C   0  0  0  0  0  0  0  0  0  0  0  0
  138.1846  150.8565  144.0192 C   0  0  0  0  0  0  0  0  0  0  0  0
  135.2933  149.6678  139.8622 C   0  0  0  0  0  0  0  0  0  0  0  0
  137.0852  151.2672  143.6119 C   0  0  0  0  0  0  0  0  0  0  0  0
  136.2823  151.9783  144.6568 C   0  0  0  0  0  0  0  0  0  0  0  0
  136.8236  153.0510  145.4014 C   0  0  0  0  0  0  0  0  0  0  0  0
  137.2637  150.0392  141.4523 C   0  0  0  0  0  0  0  0  0  0  0  0
  1  2  2  0
  1  3  1  0
  2  4  1  0
  4  5  2  0
  3  6  1  0
  6  7  2  3
  5  8  1  0
  7  9  1  0
  9 10  1  0
 10 11  1  0
  3 12  2  0
  5 12  1  0
M  END
$$$$
