
     RDKit          3D

 12 13  0  0  0  0  0  0  0  0999 V2000
  138.7086  151.1469  142.6266 C   0  0  0  0  0  0  0  0  0  0  0  0
  138.5250  151.9368  143.5112 C   0  0  0  0  0  0  0  0  0  0  0  0
  137.3811  151.6572  144.3961 C   0  0  0  0  0  0  0  0  0  0  0  0
  139.7008  151.1089  141.6121 C   0  0  0  0  0  0  0  0  0  0  0  0
  136.7115  150.4275  144.0247 C   0  0  0  0  0  0  0  0  0  0  0  0
  137.9015  150.0212  142.3179 C   0  0  0  0  0  0  0  0  0  0  0  0
  138.2227  149.2897  141.1482 C   0  0  0  0  0  0  0  0  0  0  0  0
  139.7131  150.3027  140.5115 C   0  0  0  0  0  0  0  0  0  0  0  0
  136.7873  149.6229  143.1228 C   0  0  0  0  0  0  0  0  0  0  0  0
  139.0521  149.4104  140.2934 C   0  0  0  0  0  0  0  0  0  0  0  0
  141.1028  150.8743  139.3375 Cl  0  0  0  0  0  0  0  0  0  0  0  0
  136.9025  152.5695  145.6364 C   0  0  0  0  0  0  0  0  0  0  0  0
  1  2  1  0
  2  3  2  0
  1  4  1  0
  3  5  1  0
  1  6  2  0
  6  7  1  0
  4  8  2  0
  5  9  2  0
  6  9  1  0
  7 10  2  0
  8 10  1  0
  8 11  1  0
  3 12  1  0
M  END
$$$$
