
     RDKit          3D

  9  9  0  0  0  0  0  0  0  0999 V2000
  139.2620  151.0921  142.4039 C   0  0  0  0  0  0  0  0  0  0  0  0
  138.8618  152.1315  142.9023 C   0  0  0  0  0  0  0  0  0  0  0  0
  137.9130  151.7995  143.7812 C   0  0  0  0  0  0  0  0  0  0  0  0
  138.8259  150.3979  141.6057 C   0  0  0  0  0  0  0  0  0  0  0  0
  137.2796  150.5149  143.6575 C   0  0  0  0  0  0  0  0  0  0  0  0
  139.3577  149.8119  140.3456 C   0  0  0  0  0  0  0  0  0  0  0  0
  140.5249  149.7135  139.9598 O   0  0  0  0  0  0  0  0  0  0  0  0
  138.4215  149.5143  139.4581 O   0  0  0  0  0  0  0  0  0  0  0  0
  137.5719  149.7299  142.2331 C   0  0  0  0  0  0  0  0  0  0  0  0
  1  2  1  0
  2  3  2  0
  1  4  2  0
  3  5  1  0
  4  6  1  0
  6  7  1  0
  6  8  2  0
  4  9  1  0
  5  9  2  0
M  END
$$$$
