
     RDKit          3D

 12 12  0  0  0  0  0  0  0  0999 V2000
  138.9697  151.3146  142.5684 C   0  0  0  0  0  0  0  0  0  0  0  0
  138.6018  152.0883  143.2657 C   0  0  0  0  0  0  0  0  0  0  0  0
  137.6374  151.6902  144.0814 C   0  0  0  0  0  0  0  0  0  0  0  0
  140.0289  151.3257  141.4197 C   0  0  0  0  0  0  0  0  0  0  0  0
  137.1948  150.3123  143.8930 C   0  0  0  0  0  0  0  0  0  0  0  0
  139.8113  150.4471  140.2754 C   0  0  0  0  0  0  0  0  0  0  0  0
  138.3146  149.9305  142.4430 C   0  0  0  0  0  0  0  0  0  0  0  0
  140.6766  150.7855  139.1049 C   0  0  0  0  0  0  0  0  0  0  0  0
  137.5338  149.5644  143.3292 C   0  0  0  0  0  0  0  0  0  0  0  0
  135.7810  150.7865  144.7945 C   0  0  0  0  0  0  0  0  0  0  0  0
  137.4553  152.6033  145.1209 C   0  0  0  0  0  0  0  0  0  0  0  0
  136.1585  152.2739  145.7132 C   0  0  0  0  0  0  0  0  0  0  0  0
  1  2  1  0
  2  3  2  3
  1  4  1  0
  3  5  1  0
  4  6  1  0
  1  7  2  3
  6  8  1  0
  7  9  1  0
  5 10  1  0
  3 11  1  0
 10 12  1  0
 11 12  2  0
M  END
$$$$
