
     RDKit          3D

 12 12  0  0  0  0  0  0  0  0999 V2000
  140.3019  150.2145  139.4802 Cl  0  0  0  0  0  0  0  0  0  0  0  0
  138.6758  150.1820  140.5311 C   0  0  0  0  0  0  0  0  0  0  0  0
  137.6364  149.3800  140.0902 C   0  0  0  0  0  0  0  0  0  0  0  0
  139.0293  150.8783  141.6179 C   0  0  0  0  0  0  0  0  0  0  0  0
  138.0425  150.8315  142.6892 C   0  0  0  0  0  0  0  0  0  0  0  0
  136.8327  150.0626  142.4004 C   0  0  0  0  0  0  0  0  0  0  0  0
  137.3699  148.8634  138.9180 C   0  0  0  0  0  0  0  0  0  0  0  0
  135.8138  150.2616  143.4686 C   0  0  0  0  0  0  0  0  0  0  0  0
  136.4843  149.5373  141.1082 C   0  0  0  0  0  0  0  0  0  0  0  0
  136.3633  150.4853  144.7277 C   0  0  0  0  0  0  0  0  0  0  0  0
  135.7056  151.6131  145.5104 C   0  0  0  0  0  0  0  0  0  0  0  0
  136.0133  152.8370  145.0393 C   0  0  0  0  0  0  0  0  0  0  0  0
  1  2  1  0
  2  3  2  0
  2  4  1  0
  4  5  2  0
  5  6  1  0
  3  7  1  0
  6  8  1  0
  3  9  1  0
  6  9  2  0
  8 10  1  0
 10 11  1  0
 11 12  2  0
M  END
$$$$
