
     RDKit          3D

 12 13  0  0  0  0  0  0  0  0999 V2000
  140.3019  150.2145  139.4802 Cl  0  0  0  0  0  0  0  0  0  0  0  0
  138.6758  150.1820  140.5311 C   0  0  0  0  0  0  0  0  0  0  0  0
  137.6364  149.3800  140.0902 C   0  0  0  0  0  0  0  0  0  0  0  0
  137.5436  148.9622  138.7410 C   0  0  0  0  0  0  0  0  0  0  0  0
  138.4827  150.4324  141.7166 C   0  0  0  0  0  0  0  0  0  0  0  0
  136.4911  149.4153  140.9672 C   0  0  0  0  0  0  0  0  0  0  0  0
  137.3926  150.3484  142.5006 C   0  0  0  0  0  0  0  0  0  0  0  0
  139.7583  151.2525  142.5446 C   0  0  0  0  0  0  0  0  0  0  0  0
  137.3451  150.9385  143.9467 C   0  0  0  0  0  0  0  0  0  0  0  0
  138.4246  151.1886  144.7540 C   0  0  0  0  0  0  0  0  0  0  0  0
  139.6043  151.6255  143.8066 C   0  0  0  0  0  0  0  0  0  0  0  0
  136.4255  150.0199  142.1010 C   0  0  0  0  0  0  0  0  0  0  0  0
  1  2  1  0
  2  3  2  0
  3  4  1  0
  2  5  1  0
  3  6  1  0
  5  7  2  0
  5  8  1  0
  7  9  1  0
  9 10  1  0
  8 11  1  0
 10 11  1  0
  6 12  2  0
  7 12  1  0
M  END
$$$$
