
     RDKit          3D

 12 13  0  0  0  0  0  0  0  0999 V2000
  140.3019  150.2145  139.4802 Cl  0  0  0  0  0  0  0  0  0  0  0  0
  138.6758  150.1820  140.5311 C   0  0  0  0  0  0  0  0  0  0  0  0
  137.6364  149.3800  140.0902 C   0  0  0  0  0  0  0  0  0  0  0  0
  136.4360  149.4525  140.8154 C   0  0  0  0  0  0  0  0  0  0  0  0
  138.9773  150.6955  141.6819 C   0  0  0  0  0  0  0  0  0  0  0  0
  136.5018  150.3461  141.8117 C   0  0  0  0  0  0  0  0  0  0  0  0
  135.2689  150.6056  142.7086 C   0  0  0  0  0  0  0  0  0  0  0  0
  135.6212  151.3328  143.9590 C   0  0  0  0  0  0  0  0  0  0  0  0
  137.7575  150.8972  142.4541 C   0  0  0  0  0  0  0  0  0  0  0  0
  137.7358  151.5287  143.7906 C   0  0  0  0  0  0  0  0  0  0  0  0
  134.2983  151.6250  144.8103 C   0  0  0  0  0  0  0  0  0  0  0  0
  136.7924  151.7211  144.5297 C   0  0  0  0  0  0  0  0  0  0  0  0
  1  2  1  0
  2  3  2  0
  3  4  1  0
  2  5  1  0
  4  6  2  0
  6  7  1  0
  7  8  2  0
  5  9  2  0
  6  9  1  0
  9 10  1  0
  8 11  1  0
  8 12  1  0
 10 12  2  0
M  END
$$$$
