
     RDKit          3D

 12 13  0  0  0  0  0  0  0  0999 V2000
  138.9697  151.3146  142.5684 C   0  0  0  0  0  0  0  0  0  0  0  0
  138.6018  152.0883  143.2657 C   0  0  0  0  0  0  0  0  0  0  0  0
  137.4864  151.7371  144.1980 C   0  0  0  0  0  0  0  0  0  0  0  0
  139.9864  151.4011  141.4219 C   0  0  0  0  0  0  0  0  0  0  0  0
  139.7068  150.7354  140.2267 C   0  0  0  0  0  0  0  0  0  0  0  0
  138.4808  149.8562  142.3647 C   0  0  0  0  0  0  0  0  0  0  0  0
  137.2037  150.4273  144.3413 C   0  0  0  0  0  0  0  0  0  0  0  0
  138.7871  149.7780  140.0794 C   0  0  0  0  0  0  0  0  0  0  0  0
  140.8327  151.1412  139.2751 C   0  0  0  0  0  0  0  0  0  0  0  0
  138.1099  149.3817  141.2932 C   0  0  0  0  0  0  0  0  0  0  0  0
  137.1057  152.8755  145.0697 C   0  0  0  0  0  0  0  0  0  0  0  0
  137.8598  149.4026  143.6226 N   0  0  0  0  0  0  0  0  0  0  0  0
  1  2  1  0
  2  3  2  0
  1  4  1  0
  4  5  2  0
  1  6  2  0
  3  7  1  0
  5  8  1  0
  5  9  1  0
  6 10  1  0
  8 10  2  0
  3 11  1  0
  6 12  1  0
  7 12  2  0
M  END
$$$$
