
     RDKit          3D

 12 13  0  0  0  0  0  0  0  0999 V2000
  138.7086  151.1469  142.6266 C   0  0  0  0  0  0  0  0  0  0  0  0
  138.5250  151.9368  143.5112 C   0  0  0  0  0  0  0  0  0  0  0  0
  137.3905  151.8077  144.0741 C   0  0  0  0  0  0  0  0  0  0  0  0
  136.5952  150.6189  143.9723 C   0  0  0  0  0  0  0  0  0  0  0  0
  137.9808  149.9629  142.2545 C   0  0  0  0  0  0  0  0  0  0  0  0
  136.5092  152.7499  145.0886 C   0  0  0  0  0  0  0  0  0  0  0  0
  135.4520  152.3059  145.6998 C   0  0  0  0  0  0  0  0  0  0  0  0
  135.4638  150.4686  144.8121 C   0  0  0  0  0  0  0  0  0  0  0  0
  134.8865  151.2560  145.6431 C   0  0  0  0  0  0  0  0  0  0  0  0
  138.3834  149.1625  141.1744 C   0  0  0  0  0  0  0  0  0  0  0  0
  136.9798  149.8307  142.9666 N   0  0  0  0  0  0  0  0  0  0  0  0
  134.9525  153.5633  146.5244 C   0  0  0  0  0  0  0  0  0  0  0  0
  1  2  1  0
  2  3  2  0
  3  4  1  0
  1  5  2  0
  3  6  1  0
  6  7  1  0
  4  8  1  0
  7  9  1  0
  8  9  2  0
  5 10  1  0
  4 11  2  0
  5 11  1  0
  7 12  2  0
M  END
$$$$
