
     RDKit          3D

  9  9  0  0  0  0  0  0  0  0999 V2000
  138.9697  151.3146  142.5684 C   0  0  0  0  0  0  0  0  0  0  0  0
  138.6018  152.0883  143.2657 C   0  0  0  0  0  0  0  0  0  0  0  0
  139.7627  151.4691  141.3553 C   0  0  0  0  0  0  0  0  0  0  0  0
  137.5394  151.8374  144.3779 C   0  0  0  0  0  0  0  0  0  0  0  0
  137.4014  150.5805  144.6885 C   0  0  0  0  0  0  0  0  0  0  0  0
  139.6225  150.4855  140.3438 C   0  0  0  0  0  0  0  0  0  0  0  0
  138.7453  149.4536  140.7011 C   0  0  0  0  0  0  0  0  0  0  0  0
  138.2807  149.9503  142.3754 C   0  0  0  0  0  0  0  0  0  0  0  0
  136.8703  152.8764  145.0809 C   0  0  0  0  0  0  0  0  0  0  0  0
  1  2  1  0
  1  3  1  0
  2  4  1  0
  4  5  2  0
  3  6  2  0
  6  7  1  0
  1  8  2  0
  7  8  1  0
  4  9  1  0
M  END
$$$$
