
     RDKit          3D

 12 13  0  0  0  0  0  0  0  0999 V2000
  138.9697  151.3146  142.5684 C   0  0  0  0  0  0  0  0  0  0  0  0
  138.6018  152.0883  143.2657 C   0  0  0  0  0  0  0  0  0  0  0  0
  137.6687  151.8115  144.0583 C   0  0  0  0  0  0  0  0  0  0  0  0
  139.9926  151.3705  141.4268 C   0  0  0  0  0  0  0  0  0  0  0  0
  137.5512  150.6294  144.9277 C   0  0  0  0  0  0  0  0  0  0  0  0
  139.6588  150.7358  140.2572 C   0  0  0  0  0  0  0  0  0  0  0  0
  138.5025  150.0408  140.2323 C   0  0  0  0  0  0  0  0  0  0  0  0
  137.6103  149.8214  141.4294 C   0  0  0  0  0  0  0  0  0  0  0  0
  137.9847  150.3939  142.6050 C   0  0  0  0  0  0  0  0  0  0  0  0
  137.4435  149.7888  143.7461 C   0  0  0  0  0  0  0  0  0  0  0  0
  140.7139  150.7166  139.2610 C   0  0  0  0  0  0  0  0  0  0  0  0
  138.1200  149.7134  138.9964 O   0  0  0  0  0  0  0  0  0  0  0  0
  1  2  2  0
  2  3  1  0
  1  4  1  0
  3  5  2  0
  4  6  2  0
  6  7  1  0
  7  8  1  0
  1  9  1  0
  8  9  1  0
  5 10  1  0
  9 10  2  0
  6 11  1  0
  7 12  2  0
M  END
$$$$
