
     RDKit          3D

 12 12  0  0  0  0  0  0  0  0999 V2000
  138.7086  151.1469  142.6266 C   0  0  0  0  0  0  0  0  0  0  0  0
  138.5250  151.9368  143.5112 C   0  0  0  0  0  0  0  0  0  0  0  0
  137.3811  151.6572  144.3961 C   0  0  0  0  0  0  0  0  0  0  0  0
  139.7008  151.1089  141.6121 C   0  0  0  0  0  0  0  0  0  0  0  0
  136.7115  150.4275  144.0247 C   0  0  0  0  0  0  0  0  0  0  0  0
  139.4933  150.4714  140.3262 C   0  0  0  0  0  0  0  0  0  0  0  0
  138.3034  149.7102  140.4068 C   0  0  0  0  0  0  0  0  0  0  0  0
  137.7401  150.0401  142.1735 C   0  0  0  0  0  0  0  0  0  0  0  0
  137.4409  149.5039  141.3032 C   0  0  0  0  0  0  0  0  0  0  0  0
  136.7498  149.8527  143.3175 C   0  0  0  0  0  0  0  0  0  0  0  0
  140.5553  150.7105  139.4578 C   0  0  0  0  0  0  0  0  0  0  0  0
  135.8598  150.6045  145.5240 C   0  0  0  0  0  0  0  0  0  0  0  0
  1  2  1  0
  2  3  2  3
  1  4  1  0
  3  5  1  0
  4  6  2  0
  6  7  1  0
  1  8  2  0
  7  9  2  0
  8  9  1  0
  8 10  1  0
  6 11  1  0
  5 12  1  0
M  END
$$$$
