
     RDKit          3D

 12 13  0  0  0  0  0  0  0  0999 V2000
  140.3019  150.2145  139.4802 Cl  0  0  0  0  0  0  0  0  0  0  0  0
  138.6758  150.1820  140.5311 C   0  0  0  0  0  0  0  0  0  0  0  0
  137.6364  149.3800  140.0902 C   0  0  0  0  0  0  0  0  0  0  0  0
  139.0293  150.8783  141.6179 C   0  0  0  0  0  0  0  0  0  0  0  0
  138.0425  150.8315  142.6892 C   0  0  0  0  0  0  0  0  0  0  0  0
  136.5405  149.3927  141.0819 C   0  0  0  0  0  0  0  0  0  0  0  0
  138.2152  151.4814  143.9531 C   0  0  0  0  0  0  0  0  0  0  0  0
  137.1198  151.7168  144.7502 C   0  0  0  0  0  0  0  0  0  0  0  0
  135.9476  151.1178  144.3541 C   0  0  0  0  0  0  0  0  0  0  0  0
  136.7396  150.3366  142.2217 C   0  0  0  0  0  0  0  0  0  0  0  0
  134.8298  151.4154  145.2434 C   0  0  0  0  0  0  0  0  0  0  0  0
  135.6285  150.5055  143.2023 N   0  0  0  0  0  0  0  0  0  0  0  0
  1  2  1  0
  2  3  2  0
  2  4  1  0
  4  5  2  0
  3  6  1  0
  5  7  1  0
  7  8  2  0
  8  9  1  0
  5 10  1  0
  6 10  2  0
  9 11  1  0
  9 12  2  0
 10 12  1  0
M  END
$$$$
