
     RDKit          3D

  9  9  0  0  0  0  0  0  0  0999 V2000
  139.0010  149.7643  140.3643 C   0  0  0  0  0  0  0  0  0  0  0  0
  138.7144  149.5449  139.1247 C   0  0  0  0  0  0  0  0  0  0  0  0
  138.1840  150.1020  141.2852 C   0  0  0  0  0  0  0  0  0  0  0  0
  137.3200  149.5871  138.6815 C   0  0  0  0  0  0  0  0  0  0  0  0
  136.9839  149.1440  137.4603 O   0  0  0  0  0  0  0  0  0  0  0  0
  136.3909  149.6039  139.4103 C   0  0  0  0  0  0  0  0  0  0  0  0
  135.0490  149.6395  139.3369 O   0  0  0  0  0  0  0  0  0  0  0  0
  136.6953  150.0028  140.9975 C   0  0  0  0  0  0  0  0  0  0  0  0
  138.4597  150.7132  142.7631 C   0  0  0  0  0  0  0  0  0  0  0  0
  1  2  2  0
  1  3  1  0
  2  4  1  0
  4  5  1  0
  4  6  2  0
  6  7  1  0
  3  8  2  0
  6  8  1  0
  3  9  1  0
M  END
$$$$
