
     RDKit          3D

 12 13  0  0  0  0  0  0  0  0999 V2000
  138.9697  151.3146  142.5684 C   0  0  0  0  0  0  0  0  0  0  0  0
  138.6018  152.0883  143.2657 C   0  0  0  0  0  0  0  0  0  0  0  0
  137.4864  151.7371  144.1980 C   0  0  0  0  0  0  0  0  0  0  0  0
  139.9864  151.4011  141.4219 C   0  0  0  0  0  0  0  0  0  0  0  0
  139.7068  150.7354  140.2267 C   0  0  0  0  0  0  0  0  0  0  0  0
  138.4808  149.8562  142.3647 C   0  0  0  0  0  0  0  0  0  0  0  0
  137.2037  150.4273  144.3413 C   0  0  0  0  0  0  0  0  0  0  0  0
  138.7871  149.7780  140.0794 C   0  0  0  0  0  0  0  0  0  0  0  0
  140.8327  151.1412  139.2751 C   0  0  0  0  0  0  0  0  0  0  0  0
  138.2797  149.3204  138.9377 C   0  0  0  0  0  0  0  0  0  0  0  0
  137.5598  149.5215  143.3626 C   0  0  0  0  0  0  0  0  0  0  0  0
  138.0795  149.4750  141.2110 N   0  0  0  0  0  0  0  0  0  0  0  0
  1  2  1  0
  2  3  2  0
  1  4  1  0
  4  5  2  0
  1  6  2  0
  3  7  1  0
  5  8  1  0
  5  9  1  0
  8 10  1  0
  6 11  1  0
  7 11  2  0
  6 12  1  0
  8 12  2  0
M  END
$$$$
