
     RDKit          3D

 12 13  0  0  0  0  0  0  0  0999 V2000
  139.3428  149.9936  140.5898 C   0  0  0  0  0  0  0  0  0  0  0  0
  138.9752  149.9369  139.3605 C   0  0  0  0  0  0  0  0  0  0  0  0
  138.5862  150.0774  141.6376 C   0  0  0  0  0  0  0  0  0  0  0  0
  137.6061  149.8652  139.0267 C   0  0  0  0  0  0  0  0  0  0  0  0
  139.0675  150.4813  142.9905 C   0  0  0  0  0  0  0  0  0  0  0  0
  138.0996  151.0358  143.9831 C   0  0  0  0  0  0  0  0  0  0  0  0
  136.7892  150.8977  143.5577 C   0  0  0  0  0  0  0  0  0  0  0  0
  136.8071  149.6351  140.1118 C   0  0  0  0  0  0  0  0  0  0  0  0
  137.1223  149.9423  141.4175 C   0  0  0  0  0  0  0  0  0  0  0  0
  136.2710  150.5259  142.6796 C   0  0  0  0  0  0  0  0  0  0  0  0
  135.8998  151.5420  144.7143 C   0  0  0  0  0  0  0  0  0  0  0  0
  136.1399  152.4078  145.4982 N   0  0  0  0  0  0  0  0  0  0  0  0
  1  2  2  0
  1  3  1  0
  2  4  1  0
  3  5  1  0
  5  6  2  0
  6  7  1  0
  4  8  2  0
  3  9  2  0
  8  9  1  0
  7 10  2  0
  9 10  1  0
  7 11  1  0
 11 12  2  0
M  END
$$$$
