
     RDKit          3D

 12 12  0  0  0  0  0  0  0  0999 V2000
  138.9697  151.3146  142.5684 C   0  0  0  0  0  0  0  0  0  0  0  0
  138.6018  152.0883  143.2657 C   0  0  0  0  0  0  0  0  0  0  0  0
  137.4864  151.7371  144.1980 C   0  0  0  0  0  0  0  0  0  0  0  0
  139.9864  151.4011  141.4219 C   0  0  0  0  0  0  0  0  0  0  0  0
  136.7358  152.5376  145.0264 C   0  0  0  0  0  0  0  0  0  0  0  0
  137.0438  153.8716  145.0221 C   0  0  0  0  0  0  0  0  0  0  0  0
  139.6830  150.7211  140.1958 C   0  0  0  0  0  0  0  0  0  0  0  0
  138.5909  149.7770  140.3983 C   0  0  0  0  0  0  0  0  0  0  0  0
  137.8008  149.7759  141.6153 C   0  0  0  0  0  0  0  0  0  0  0  0
  135.5256  152.2962  145.3228 C   0  0  0  0  0  0  0  0  0  0  0  0
  138.0932  150.3015  142.4955 C   0  0  0  0  0  0  0  0  0  0  0  0
  135.1559  151.1851  145.9919 C   0  0  0  0  0  0  0  0  0  0  0  0
  1  2  1  0
  2  3  2  3
  1  4  1  0
  3  5  1  0
  5  6  1  0
  4  7  2  0
  7  8  1  0
  8  9  2  0
  5 10  2  3
  1 11  2  0
  9 11  1  0
 10 12  1  0
M  END
$$$$
