
     RDKit          3D

 12 13  0  0  0  0  0  0  0  0999 V2000
  140.3019  150.2145  139.4802 Cl  0  0  0  0  0  0  0  0  0  0  0  0
  138.6758  150.1820  140.5311 C   0  0  0  0  0  0  0  0  0  0  0  0
  137.6364  149.3800  140.0902 C   0  0  0  0  0  0  0  0  0  0  0  0
  139.0293  150.8783  141.6179 C   0  0  0  0  0  0  0  0  0  0  0  0
  136.6543  149.6401  140.8165 C   0  0  0  0  0  0  0  0  0  0  0  0
  138.0311  151.0105  142.5251 C   0  0  0  0  0  0  0  0  0  0  0  0
  138.1755  151.7013  143.8064 C   0  0  0  0  0  0  0  0  0  0  0  0
  137.1234  151.8706  144.6589 C   0  0  0  0  0  0  0  0  0  0  0  0
  136.6853  150.3819  142.1076 C   0  0  0  0  0  0  0  0  0  0  0  0
  135.9062  151.3811  144.4236 C   0  0  0  0  0  0  0  0  0  0  0  0
  135.5810  150.7117  143.0544 C   0  0  0  0  0  0  0  0  0  0  0  0
  134.9943  151.3651  145.1978 O   0  0  0  0  0  0  0  0  0  0  0  0
  1  2  1  0
  2  3  2  0
  2  4  1  0
  3  5  1  0
  4  6  2  0
  6  7  1  0
  7  8  2  0
  5  9  2  0
  6  9  1  0
  8 10  1  0
  9 11  1  0
 10 11  1  0
 10 12  2  0
M  END
$$$$
