
     RDKit          3D

 12 13  0  0  0  0  0  0  0  0999 V2000
  140.3019  150.2145  139.4802 Cl  0  0  0  0  0  0  0  0  0  0  0  0
  138.6758  150.1820  140.5311 C   0  0  0  0  0  0  0  0  0  0  0  0
  137.6364  149.3800  140.0902 C   0  0  0  0  0  0  0  0  0  0  0  0
  136.4360  149.4525  140.8154 C   0  0  0  0  0  0  0  0  0  0  0  0
  138.9773  150.6955  141.6819 C   0  0  0  0  0  0  0  0  0  0  0  0
  136.5018  150.3461  141.8117 C   0  0  0  0  0  0  0  0  0  0  0  0
  135.2689  150.6056  142.7086 C   0  0  0  0  0  0  0  0  0  0  0  0
  135.7271  151.2590  143.9921 C   0  0  0  0  0  0  0  0  0  0  0  0
  137.7486  150.9157  142.4479 C   0  0  0  0  0  0  0  0  0  0  0  0
  137.8032  151.5607  143.7866 C   0  0  0  0  0  0  0  0  0  0  0  0
  136.7492  151.6517  144.5876 C   0  0  0  0  0  0  0  0  0  0  0  0
  136.7222  152.2772  145.5003 O   0  0  0  0  0  0  0  0  0  0  0  0
  1  2  1  0
  2  3  2  0
  3  4  1  0
  2  5  1  0
  4  6  2  0
  6  7  1  0
  7  8  1  0
  5  9  2  0
  6  9  1  0
  9 10  1  0
  8 11  1  0
 10 11  1  0
 11 12  2  0
M  END
$$$$
