
     RDKit          3D

 12 12  0  0  0  0  0  0  0  0999 V2000
  139.0010  149.7643  140.3643 C   0  0  0  0  0  0  0  0  0  0  0  0
  138.7144  149.5449  139.1247 C   0  0  0  0  0  0  0  0  0  0  0  0
  138.1840  150.1020  141.2852 C   0  0  0  0  0  0  0  0  0  0  0  0
  139.6385  149.1413  138.0959 C   0  0  0  0  0  0  0  0  0  0  0  0
  136.6881  150.0305  141.1796 C   0  0  0  0  0  0  0  0  0  0  0  0
  135.7984  150.1278  142.2481 C   0  0  0  0  0  0  0  0  0  0  0  0
  136.4758  150.9552  143.1765 C   0  0  0  0  0  0  0  0  0  0  0  0
  135.7797  151.3460  144.4950 C   0  0  0  0  0  0  0  0  0  0  0  0
  135.5471  150.8711  145.4009 C   0  0  0  0  0  0  0  0  0  0  0  0
  137.9878  151.1174  143.0492 C   0  0  0  0  0  0  0  0  0  0  0  0
  138.4220  151.9319  144.4031 C   0  0  0  0  0  0  0  0  0  0  0  0
  138.6546  150.6901  142.2287 N   0  0  0  0  0  0  0  0  0  0  0  0
  1  2  2  3
  1  3  1  0
  2  4  1  0
  3  5  2  0
  5  6  1  0
  6  7  2  0
  7  8  1  0
  8  9  2  0
  7 10  1  0
 10 11  1  0
  3 12  1  0
 10 12  2  0
M  END
$$$$
