
     RDKit          3D

  9  9  0  0  0  0  0  0  0  0999 V2000
  139.2620  151.0921  142.4039 C   0  0  0  0  0  0  0  0  0  0  0  0
  138.8618  152.1315  142.9023 C   0  0  0  0  0  0  0  0  0  0  0  0
  137.9130  151.7995  143.7812 C   0  0  0  0  0  0  0  0  0  0  0  0
  138.8259  150.3979  141.6057 C   0  0  0  0  0  0  0  0  0  0  0  0
  137.6638  149.9538  141.7688 C   0  0  0  0  0  0  0  0  0  0  0  0
  137.5091  152.6033  144.9557 C   0  0  0  0  0  0  0  0  0  0  0  0
  136.8240  149.3530  140.7612 C   0  0  0  0  0  0  0  0  0  0  0  0
  136.2096  152.7677  145.1884 C   0  0  0  0  0  0  0  0  0  0  0  0
  136.9290  150.6968  143.3079 C   0  0  0  0  0  0  0  0  0  0  0  0
  1  2  1  0
  2  3  2  0
  1  4  2  0
  4  5  1  0
  3  6  1  0
  5  7  1  0
  6  8  2  0
  3  9  1  0
  5  9  2  0
M  END
$$$$
