
     RDKit          3D

 13 14  0  0  0  0  0  0  0  0999 V2000
  138.9697  151.3146  142.5684 C   0  0  0  0  0  0  0  0  0  0  0  0
  138.6018  152.0883  143.2657 C   0  0  0  0  0  0  0  0  0  0  0  0
  137.6687  151.8115  144.0583 C   0  0  0  0  0  0  0  0  0  0  0  0
  139.9926  151.3705  141.4268 C   0  0  0  0  0  0  0  0  0  0  0  0
  137.5512  150.6294  144.9277 C   0  0  0  0  0  0  0  0  0  0  0  0
  139.6588  150.7358  140.2572 C   0  0  0  0  0  0  0  0  0  0  0  0
  138.5025  150.0408  140.2323 C   0  0  0  0  0  0  0  0  0  0  0  0
  137.6103  149.8214  141.4294 C   0  0  0  0  0  0  0  0  0  0  0  0
  140.5150  150.7374  139.1663 C   0  0  0  0  0  0  0  0  0  0  0  0
  138.0040  149.4736  139.1312 C   0  0  0  0  0  0  0  0  0  0  0  0
  138.0546  150.1967  142.3161 C   0  0  0  0  0  0  0  0  0  0  0  0
  138.5953  148.9644  138.2187 C   0  0  0  0  0  0  0  0  0  0  0  0
  137.4946  149.6358  143.7702 N   0  0  0  0  0  0  0  0  0  0  0  0
  1  2  2  0
  2  3  1  0
  1  4  1  0
  3  5  2  0
  4  6  2  0
  6  7  1  0
  7  8  1  0
  6  9  1  0
  7 10  2  3
  1 11  1  0
  8 11  2  0
 10 12  1  0
  5 13  1  0
 11 13  1  0
M  END
$$$$
