
     RDKit          3D

 13 14  0  0  0  0  0  0  0  0999 V2000
  138.7086  151.1469  142.6266 C   0  0  0  0  0  0  0  0  0  0  0  0
  138.5250  151.9368  143.5112 C   0  0  0  0  0  0  0  0  0  0  0  0
  137.3905  151.8077  144.0741 C   0  0  0  0  0  0  0  0  0  0  0  0
  136.5952  150.6189  143.9723 C   0  0  0  0  0  0  0  0  0  0  0  0
  137.9808  149.9629  142.2545 C   0  0  0  0  0  0  0  0  0  0  0  0
  136.5092  152.7499  145.0886 C   0  0  0  0  0  0  0  0  0  0  0  0
  135.4520  152.3059  145.6998 C   0  0  0  0  0  0  0  0  0  0  0  0
  135.4638  150.4686  144.8121 C   0  0  0  0  0  0  0  0  0  0  0  0
  134.7544  151.2180  145.5922 C   0  0  0  0  0  0  0  0  0  0  0  0
  136.9480  149.7434  143.0325 C   0  0  0  0  0  0  0  0  0  0  0  0
  134.9233  153.5612  146.5000 C   0  0  0  0  0  0  0  0  0  0  0  0
  140.0314  151.3365  141.7358 C   0  0  0  0  0  0  0  0  0  0  0  0
  140.0991  150.6204  140.4802 C   0  0  0  0  0  0  0  0  0  0  0  0
  1  2  1  0
  2  3  2  0
  3  4  1  0
  1  5  2  0
  3  6  1  0
  6  7  1  0
  4  8  1  0
  7  9  1  0
  8  9  2  0
  4 10  2  0
  5 10  1  0
  7 11  2  0
  1 12  1  0
 12 13  1  0
M  END
$$$$
