
     RDKit          3D

 13 14  0  0  0  0  0  0  0  0999 V2000
  139.0010  149.7643  140.3643 C   0  0  0  0  0  0  0  0  0  0  0  0
  138.7144  149.5449  139.1247 C   0  0  0  0  0  0  0  0  0  0  0  0
  138.1840  150.1020  141.2852 C   0  0  0  0  0  0  0  0  0  0  0  0
  139.6385  149.1413  138.0959 C   0  0  0  0  0  0  0  0  0  0  0  0
  136.6881  150.0305  141.1796 C   0  0  0  0  0  0  0  0  0  0  0  0
  135.7984  150.1278  142.2481 C   0  0  0  0  0  0  0  0  0  0  0  0
  136.4562  150.6806  143.3963 C   0  0  0  0  0  0  0  0  0  0  0  0
  135.7469  151.0481  144.6522 C   0  0  0  0  0  0  0  0  0  0  0  0
  136.1660  152.3400  145.2923 C   0  0  0  0  0  0  0  0  0  0  0  0
  135.2191  152.8828  146.2027 C   0  0  0  0  0  0  0  0  0  0  0  0
  137.7831  151.1455  143.8482 C   0  0  0  0  0  0  0  0  0  0  0  0
  138.0509  152.0664  144.8024 C   0  0  0  0  0  0  0  0  0  0  0  0
  138.7105  150.8518  142.6655 C   0  0  0  0  0  0  0  0  0  0  0  0
  1  2  2  3
  1  3  1  0
  2  4  1  0
  3  5  2  0
  5  6  1  0
  6  7  2  0
  7  8  1  0
  8  9  1  0
  9 10  1  0
  7 11  1  0
  9 12  1  0
 11 12  1  0
  3 13  1  0
 11 13  1  0
M  END
$$$$
