
     RDKit          3D

 13 14  0  0  0  0  0  0  0  0999 V2000
  140.3019  150.2145  139.4802 Cl  0  0  0  0  0  0  0  0  0  0  0  0
  138.6758  150.1820  140.5311 C   0  0  0  0  0  0  0  0  0  0  0  0
  137.6364  149.3800  140.0902 C   0  0  0  0  0  0  0  0  0  0  0  0
  138.7704  150.9236  141.6515 C   0  0  0  0  0  0  0  0  0  0  0  0
  138.1279  150.9106  142.4389 C   0  0  0  0  0  0  0  0  0  0  0  0
  136.6301  149.5529  140.9768 C   0  0  0  0  0  0  0  0  0  0  0  0
  138.2520  151.5891  143.8343 C   0  0  0  0  0  0  0  0  0  0  0  0
  135.2962  149.1029  140.6962 C   0  0  0  0  0  0  0  0  0  0  0  0
  137.1901  151.7567  144.6952 C   0  0  0  0  0  0  0  0  0  0  0  0
  136.1983  151.3422  144.4011 C   0  0  0  0  0  0  0  0  0  0  0  0
  136.7223  150.3060  142.2486 C   0  0  0  0  0  0  0  0  0  0  0  0
  135.8158  150.6031  143.1669 C   0  0  0  0  0  0  0  0  0  0  0  0
  134.6768  151.6014  145.3978 Cl  0  0  0  0  0  0  0  0  0  0  0  0
  1  2  1  0
  2  3  1  0
  2  4  2  0
  4  5  1  0
  3  6  2  0
  5  7  1  0
  6  8  1  0
  7  9  2  0
  9 10  1  0
  5 11  2  0
  6 11  1  0
 10 12  2  0
 11 12  1  0
 10 13  1  0
M  END
$$$$
