
     RDKit          3D

 13 14  0  0  0  0  0  0  0  0999 V2000
  139.2620  151.0921  142.4039 C   0  0  0  0  0  0  0  0  0  0  0  0
  138.8618  152.1315  142.9023 C   0  0  0  0  0  0  0  0  0  0  0  0
  137.9130  151.7995  143.7812 C   0  0  0  0  0  0  0  0  0  0  0  0
  138.8259  150.3979  141.6057 C   0  0  0  0  0  0  0  0  0  0  0  0
  137.6638  149.9538  141.7688 C   0  0  0  0  0  0  0  0  0  0  0  0
  137.5091  152.6033  144.9557 C   0  0  0  0  0  0  0  0  0  0  0  0
  136.8131  150.7653  143.7756 C   0  0  0  0  0  0  0  0  0  0  0  0
  136.7050  150.0802  142.7142 C   0  0  0  0  0  0  0  0  0  0  0  0
  136.2312  152.8787  145.1974 C   0  0  0  0  0  0  0  0  0  0  0  0
  135.9758  150.8218  144.8230 C   0  0  0  0  0  0  0  0  0  0  0  0
  139.6477  150.0851  140.3932 C   0  0  0  0  0  0  0  0  0  0  0  0
  135.7007  151.9861  145.5044 C   0  0  0  0  0  0  0  0  0  0  0  0
  140.9707  150.0015  140.3366 C   0  0  0  0  0  0  0  0  0  0  0  0
  1  2  1  0
  2  3  2  0
  1  4  2  0
  4  5  1  0
  3  6  1  0
  3  7  1  0
  5  8  1  0
  7  8  1  0
  6  9  1  0
  7 10  2  0
  4 11  1  0
  9 12  2  0
 10 12  1  0
 11 13  2  0
M  END
$$$$
