
     RDKit          3D

 13 14  0  0  0  0  0  0  0  0999 V2000
  140.3019  150.2145  139.4802 Cl  0  0  0  0  0  0  0  0  0  0  0  0
  138.6758  150.1820  140.5311 C   0  0  0  0  0  0  0  0  0  0  0  0
  137.6364  149.3800  140.0902 C   0  0  0  0  0  0  0  0  0  0  0  0
  138.8645  150.7144  141.4528 C   0  0  0  0  0  0  0  0  0  0  0  0
  137.8186  150.7977  142.5169 C   0  0  0  0  0  0  0  0  0  0  0  0
  138.0486  151.4509  143.8211 C   0  0  0  0  0  0  0  0  0  0  0  0
  136.6997  150.0744  142.0183 C   0  0  0  0  0  0  0  0  0  0  0  0
  136.9142  151.6355  144.5807 C   0  0  0  0  0  0  0  0  0  0  0  0
  137.5435  148.7608  138.8608 C   0  0  0  0  0  0  0  0  0  0  0  0
  135.5528  150.4081  143.0272 C   0  0  0  0  0  0  0  0  0  0  0  0
  135.6724  151.0932  144.2616 C   0  0  0  0  0  0  0  0  0  0  0  0
  136.4547  149.5653  140.9528 C   0  0  0  0  0  0  0  0  0  0  0  0
  136.7059  152.2638  145.7336 O   0  0  0  0  0  0  0  0  0  0  0  0
  1  2  1  0
  2  3  2  0
  2  4  1  0
  4  5  2  0
  5  6  1  0
  5  7  1  0
  6  8  1  0
  3  9  1  0
  7 10  1  0
  8 11  1  0
 10 11  2  0
  3 12  1  0
  7 12  2  0
  8 13  2  0
M  END
$$$$
