
     RDKit          3D

 13 13  0  0  0  0  0  0  0  0999 V2000
  138.7240  151.5758  143.3184 C   0  0  0  0  0  0  0  0  0  0  0  0
  137.9193  152.3258  143.7536 C   0  0  0  0  0  0  0  0  0  0  0  0
  136.7526  151.8075  144.4391 C   0  0  0  0  0  0  0  0  0  0  0  0
  138.5730  150.7616  142.3607 C   0  0  0  0  0  0  0  0  0  0  0  0
  136.5022  150.5129  144.1734 C   0  0  0  0  0  0  0  0  0  0  0  0
  139.5484  150.5136  141.3201 C   0  0  0  0  0  0  0  0  0  0  0  0
  137.3290  149.9593  142.5491 C   0  0  0  0  0  0  0  0  0  0  0  0
  135.7673  152.4773  145.5077 C   0  0  0  0  0  0  0  0  0  0  0  0
  134.8257  151.7626  146.0525 C   0  0  0  0  0  0  0  0  0  0  0  0
  139.2214  149.9573  140.1197 C   0  0  0  0  0  0  0  0  0  0  0  0
  138.0840  149.5061  139.8059 C   0  0  0  0  0  0  0  0  0  0  0  0
  140.2880  149.9926  139.0920 C   0  0  0  0  0  0  0  0  0  0  0  0
  136.1427  153.5715  145.5061 O   0  0  0  0  0  0  0  0  0  0  0  0
  1  2  1  0
  2  3  2  0
  1  4  2  0
  3  5  1  0
  4  6  1  0
  4  7  1  0
  5  7  2  0
  3  8  1  0
  8  9  1  0
  6 10  1  0
 10 11  2  0
 10 12  1  0
  8 13  2  0
M  END
$$$$
