
     RDKit          3D

 13 13  0  0  0  0  0  0  0  0999 V2000
  139.5550  150.5075  140.4438 C   0  0  0  0  0  0  0  0  0  0  0  0
  139.2165  150.0149  139.3725 C   0  0  0  0  0  0  0  0  0  0  0  0
  138.8581  150.3072  141.5852 C   0  0  0  0  0  0  0  0  0  0  0  0
  139.2270  150.3459  142.8891 C   0  0  0  0  0  0  0  0  0  0  0  0
  138.5608  151.2821  143.6742 C   0  0  0  0  0  0  0  0  0  0  0  0
  137.8570  149.4552  139.3184 C   0  0  0  0  0  0  0  0  0  0  0  0
  137.4753  151.5817  143.4203 C   0  0  0  0  0  0  0  0  0  0  0  0
  137.3786  148.8877  138.1379 C   0  0  0  0  0  0  0  0  0  0  0  0
  136.7351  152.5036  144.4173 C   0  0  0  0  0  0  0  0  0  0  0  0
  137.4806  150.0694  141.2329 C   0  0  0  0  0  0  0  0  0  0  0  0
  137.0073  149.6820  140.3588 C   0  0  0  0  0  0  0  0  0  0  0  0
  135.5833  152.1007  145.1002 C   0  0  0  0  0  0  0  0  0  0  0  0
  134.8490  152.9180  145.8766 C   0  0  0  0  0  0  0  0  0  0  0  0
  1  2  2  0
  1  3  1  0
  3  4  1  0
  4  5  2  3
  2  6  1  0
  5  7  1  0
  6  8  1  0
  7  9  1  0
  3 10  2  0
  6 11  2  0
 10 11  1  0
  9 12  2  3
 12 13  1  0
M  END
$$$$
