
     RDKit          3D

  9 10  0  0  0  0  0  0  0  0999 V2000
  138.9697  151.3146  142.5684 C   0  0  0  0  0  0  0  0  0  0  0  0
  138.6018  152.0883  143.2657 C   0  0  0  0  0  0  0  0  0  0  0  0
  139.7627  151.4691  141.3553 C   0  0  0  0  0  0  0  0  0  0  0  0
  137.7629  151.7021  144.3622 C   0  0  0  0  0  0  0  0  0  0  0  0
  137.3916  150.2976  144.2722 C   0  0  0  0  0  0  0  0  0  0  0  0
  139.5884  150.5272  140.3063 C   0  0  0  0  0  0  0  0  0  0  0  0
  138.7536  149.4626  140.7016 C   0  0  0  0  0  0  0  0  0  0  0  0
  138.3560  149.9218  142.3330 C   0  0  0  0  0  0  0  0  0  0  0  0
  137.6569  149.5086  143.2576 C   0  0  0  0  0  0  0  0  0  0  0  0
  1  2  1  0
  1  3  1  0
  2  4  2  0
  4  5  1  0
  3  6  2  0
  6  7  1  0
  1  8  2  0
  7  8  1  0
  5  9  2  0
  8  9  1  0
M  END
$$$$
