
     RDKit          3D

 13 14  0  0  0  0  0  0  0  0999 V2000
  139.3428  149.9936  140.5898 C   0  0  0  0  0  0  0  0  0  0  0  0
  138.9752  149.9369  139.3605 C   0  0  0  0  0  0  0  0  0  0  0  0
  138.5862  150.0774  141.6376 C   0  0  0  0  0  0  0  0  0  0  0  0
  137.2156  149.9043  141.8335 C   0  0  0  0  0  0  0  0  0  0  0  0
  136.5021  149.8247  140.5813 C   0  0  0  0  0  0  0  0  0  0  0  0
  139.1845  150.3562  143.1502 C   0  0  0  0  0  0  0  0  0  0  0  0
  138.3557  151.1252  143.9047 C   0  0  0  0  0  0  0  0  0  0  0  0
  136.5232  150.1791  143.0233 C   0  0  0  0  0  0  0  0  0  0  0  0
  135.1657  149.6396  140.4783 C   0  0  0  0  0  0  0  0  0  0  0  0
  137.1196  150.7461  144.0853 C   0  0  0  0  0  0  0  0  0  0  0  0
  137.4100  149.7345  139.3913 C   0  0  0  0  0  0  0  0  0  0  0  0
  136.2595  151.3741  145.2539 C   0  0  0  0  0  0  0  0  0  0  0  0
  136.6464  151.5625  146.4590 C   0  0  0  0  0  0  0  0  0  0  0  0
  1  2  2  0
  1  3  1  0
  3  4  1  0
  4  5  2  0
  3  6  1  0
  6  7  2  0
  4  8  1  0
  5  9  1  0
  7 10  1  0
  8 10  2  0
  2 11  1  0
  5 11  1  0
 10 12  1  0
 12 13  2  0
M  END
$$$$
