
     RDKit          3D

 13 14  0  0  0  0  0  0  0  0999 V2000
  138.9697  151.3146  142.5684 C   0  0  0  0  0  0  0  0  0  0  0  0
  138.6018  152.0883  143.2657 C   0  0  0  0  0  0  0  0  0  0  0  0
  139.7627  151.4691  141.3553 C   0  0  0  0  0  0  0  0  0  0  0  0
  137.7629  151.7021  144.3622 C   0  0  0  0  0  0  0  0  0  0  0  0
  137.3916  150.2976  144.2722 C   0  0  0  0  0  0  0  0  0  0  0  0
  139.5884  150.5272  140.3063 C   0  0  0  0  0  0  0  0  0  0  0  0
  138.7536  149.4626  140.7016 C   0  0  0  0  0  0  0  0  0  0  0  0
  137.8316  149.5886  141.7036 C   0  0  0  0  0  0  0  0  0  0  0  0
  138.0887  150.1737  142.9585 C   0  0  0  0  0  0  0  0  0  0  0  0
  137.1794  152.3260  145.5642 C   0  0  0  0  0  0  0  0  0  0  0  0
  136.0463  152.7891  145.4644 C   0  0  0  0  0  0  0  0  0  0  0  0
  140.4271  150.5535  139.2200 C   0  0  0  0  0  0  0  0  0  0  0  0
  134.8888  152.1658  146.0357 C   0  0  0  0  0  0  0  0  0  0  0  0
  1  2  1  0
  1  3  1  0
  2  4  2  0
  4  5  1  0
  3  6  2  0
  6  7  1  0
  7  8  2  0
  1  9  2  0
  5  9  1  0
  8  9  1  0
  4 10  1  0
 10 11  1  0
  6 12  1  0
 11 13  1  0
M  END
$$$$
