
     RDKit          3D

 13 14  0  0  0  0  0  0  0  0999 V2000
  140.3019  150.2145  139.4802 Cl  0  0  0  0  0  0  0  0  0  0  0  0
  138.6758  150.1820  140.5311 C   0  0  0  0  0  0  0  0  0  0  0  0
  137.6364  149.3800  140.0902 C   0  0  0  0  0  0  0  0  0  0  0  0
  137.5436  148.9622  138.7410 C   0  0  0  0  0  0  0  0  0  0  0  0
  138.4827  150.4324  141.7166 C   0  0  0  0  0  0  0  0  0  0  0  0
  136.4911  149.4153  140.9672 C   0  0  0  0  0  0  0  0  0  0  0  0
  137.3926  150.3484  142.5006 C   0  0  0  0  0  0  0  0  0  0  0  0
  139.7583  151.2525  142.5446 C   0  0  0  0  0  0  0  0  0  0  0  0
  137.3451  150.9385  143.9467 C   0  0  0  0  0  0  0  0  0  0  0  0
  136.2666  149.8655  142.1031 C   0  0  0  0  0  0  0  0  0  0  0  0
  138.4630  151.2638  144.6233 C   0  0  0  0  0  0  0  0  0  0  0  0
  136.0839  151.0717  144.6434 C   0  0  0  0  0  0  0  0  0  0  0  0
  139.6852  151.5369  143.7819 C   0  0  0  0  0  0  0  0  0  0  0  0
  1  2  1  0
  2  3  2  0
  3  4  1  0
  2  5  1  0
  3  6  1  0
  5  7  2  0
  5  8  1  0
  7  9  1  0
  6 10  2  0
  7 10  1  0
  9 11  2  0
  9 12  1  0
  8 13  2  0
 11 13  1  0
M  END
$$$$
