
     RDKit          3D

 13 14  0  0  0  0  0  0  0  0999 V2000
  140.3019  150.2145  139.4802 Cl  0  0  0  0  0  0  0  0  0  0  0  0
  138.6758  150.1820  140.5311 C   0  0  0  0  0  0  0  0  0  0  0  0
  137.6364  149.3800  140.0902 C   0  0  0  0  0  0  0  0  0  0  0  0
  136.4360  149.4525  140.8154 C   0  0  0  0  0  0  0  0  0  0  0  0
  139.1314  150.7497  141.5093 C   0  0  0  0  0  0  0  0  0  0  0  0
  138.1131  150.7916  142.6542 C   0  0  0  0  0  0  0  0  0  0  0  0
  135.1492  149.2317  140.4372 C   0  0  0  0  0  0  0  0  0  0  0  0
  138.4196  151.3905  143.9383 C   0  0  0  0  0  0  0  0  0  0  0  0
  136.7853  150.4836  142.9834 N   0  0  0  0  0  0  0  0  0  0  0  0
  136.2610  150.8697  144.2731 C   0  0  0  0  0  0  0  0  0  0  0  0
  136.2818  150.0511  142.1740 C   0  0  0  0  0  0  0  0  0  0  0  0
  135.1218  150.7787  144.7103 C   0  0  0  0  0  0  0  0  0  0  0  0
  137.4655  151.3822  144.8758 C   0  0  0  0  0  0  0  0  0  0  0  0
  1  2  1  0
  2  3  2  0
  3  4  1  0
  2  5  1  0
  5  6  2  0
  4  7  1  0
  6  8  1  0
  6  9  1  0
  9 10  1  0
  4 11  2  0
  9 11  1  0
 10 12  2  0
  8 13  2  0
 10 13  1  0
M  END
$$$$
