
     RDKit          3D

 13 14  0  0  0  0  0  0  0  0999 V2000
  139.0010  149.7643  140.3643 C   0  0  0  0  0  0  0  0  0  0  0  0
  138.7144  149.5449  139.1247 C   0  0  0  0  0  0  0  0  0  0  0  0
  138.1840  150.1020  141.2852 C   0  0  0  0  0  0  0  0  0  0  0  0
  137.3200  149.5871  138.6815 C   0  0  0  0  0  0  0  0  0  0  0  0
  136.4668  149.5647  139.6600 C   0  0  0  0  0  0  0  0  0  0  0  0
  138.6203  150.4924  142.6513 C   0  0  0  0  0  0  0  0  0  0  0  0
  137.7616  150.9851  143.6296 C   0  0  0  0  0  0  0  0  0  0  0  0
  136.4770  150.9768  143.2092 C   0  0  0  0  0  0  0  0  0  0  0  0
  135.5254  151.4160  144.2399 C   0  0  0  0  0  0  0  0  0  0  0  0
  136.7403  150.0044  140.9819 C   0  0  0  0  0  0  0  0  0  0  0  0
  136.1703  150.4248  142.0385 N   0  0  0  0  0  0  0  0  0  0  0  0
  135.4459  151.0262  145.3626 C   0  0  0  0  0  0  0  0  0  0  0  0
  134.8555  151.8788  146.4737 C   0  0  0  0  0  0  0  0  0  0  0  0
  1  2  2  0
  1  3  1  0
  2  4  1  0
  4  5  2  0
  3  6  1  0
  6  7  2  0
  7  8  1  0
  8  9  1  0
  3 10  2  0
  5 10  1  0
  8 11  2  0
 10 11  1  0
  9 12  1  0
 12 13  1  0
M  END
$$$$
