
     RDKit          3D

 13 14  0  0  0  0  0  0  0  0999 V2000
  139.2620  151.0921  142.4039 C   0  0  0  0  0  0  0  0  0  0  0  0
  138.8618  152.1315  142.9023 C   0  0  0  0  0  0  0  0  0  0  0  0
  137.9130  151.7995  143.7812 C   0  0  0  0  0  0  0  0  0  0  0  0
  138.8259  150.3979  141.6057 C   0  0  0  0  0  0  0  0  0  0  0  0
  137.6638  149.9538  141.7688 C   0  0  0  0  0  0  0  0  0  0  0  0
  137.5091  152.6033  144.9557 C   0  0  0  0  0  0  0  0  0  0  0  0
  136.8131  150.7653  143.7756 C   0  0  0  0  0  0  0  0  0  0  0  0
  135.9244  150.8037  144.8950 C   0  0  0  0  0  0  0  0  0  0  0  0
  136.9542  149.4283  140.5394 C   0  0  0  0  0  0  0  0  0  0  0  0
  135.9804  151.7966  145.6582 C   0  0  0  0  0  0  0  0  0  0  0  0
  136.7696  152.7934  145.7213 C   0  0  0  0  0  0  0  0  0  0  0  0
  134.5148  151.7570  146.6182 C   0  0  0  0  0  0  0  0  0  0  0  0
  136.7989  150.2687  142.8506 C   0  0  0  0  0  0  0  0  0  0  0  0
  1  2  1  0
  2  3  2  0
  1  4  2  0
  4  5  1  0
  3  6  1  0
  3  7  1  0
  7  8  2  0
  5  9  1  0
  8 10  1  0
  6 11  2  0
 10 11  1  0
 10 12  1  0
  5 13  2  0
  7 13  1  0
M  END
$$$$
