
     RDKit          3D

 13 14  0  0  0  0  0  0  0  0999 V2000
  139.0010  149.7643  140.3643 C   0  0  0  0  0  0  0  0  0  0  0  0
  138.7144  149.5449  139.1247 C   0  0  0  0  0  0  0  0  0  0  0  0
  138.1840  150.1020  141.2852 C   0  0  0  0  0  0  0  0  0  0  0  0
  137.3200  149.5871  138.6815 C   0  0  0  0  0  0  0  0  0  0  0  0
  136.9839  149.1440  137.4603 O   0  0  0  0  0  0  0  0  0  0  0  0
  136.5120  149.8334  139.7504 C   0  0  0  0  0  0  0  0  0  0  0  0
  136.8275  150.1526  141.0382 C   0  0  0  0  0  0  0  0  0  0  0  0
  138.5748  150.4812  142.6527 C   0  0  0  0  0  0  0  0  0  0  0  0
  135.9105  150.4474  142.0009 C   0  0  0  0  0  0  0  0  0  0  0  0
  139.9690  150.5092  143.0007 C   0  0  0  0  0  0  0  0  0  0  0  0
  137.7418  150.8588  143.5894 C   0  0  0  0  0  0  0  0  0  0  0  0
  134.5434  150.6271  141.7787 C   0  0  0  0  0  0  0  0  0  0  0  0
  136.3123  150.8877  143.4068 C   0  0  0  0  0  0  0  0  0  0  0  0
  1  2  2  0
  1  3  1  0
  2  4  1  0
  4  5  2  0
  4  6  1  0
  3  7  1  0
  6  7  1  0
  3  8  2  0
  7  9  2  0
  8 10  1  0
  8 11  1  0
  9 12  1  0
  9 13  1  0
 11 13  2  0
M  END
$$$$
