
     RDKit          3D

 13 13  0  0  0  0  0  0  0  0999 V2000
  138.9697  151.3146  142.5684 C   0  0  0  0  0  0  0  0  0  0  0  0
  138.6018  152.0883  143.2657 C   0  0  0  0  0  0  0  0  0  0  0  0
  137.4864  151.7371  144.1980 C   0  0  0  0  0  0  0  0  0  0  0  0
  139.9864  151.4011  141.4219 C   0  0  0  0  0  0  0  0  0  0  0  0
  139.7068  150.7354  140.2267 C   0  0  0  0  0  0  0  0  0  0  0  0
  138.4808  149.8562  142.3647 C   0  0  0  0  0  0  0  0  0  0  0  0
  137.2037  150.4273  144.3413 C   0  0  0  0  0  0  0  0  0  0  0  0
  138.7871  149.7780  140.0794 C   0  0  0  0  0  0  0  0  0  0  0  0
  136.6054  152.5478  145.0308 C   0  0  0  0  0  0  0  0  0  0  0  0
  137.3554  149.4255  141.7854 C   0  0  0  0  0  0  0  0  0  0  0  0
  140.8475  151.1886  139.2976 C   0  0  0  0  0  0  0  0  0  0  0  0
  136.9194  153.8522  145.2235 C   0  0  0  0  0  0  0  0  0  0  0  0
  137.6738  149.3079  140.5977 C   0  0  0  0  0  0  0  0  0  0  0  0
  1  2  1  0
  2  3  2  3
  1  4  1  0
  4  5  2  0
  1  6  2  0
  3  7  1  0
  5  8  1  0
  3  9  1  0
  6 10  1  0
  5 11  1  0
  9 12  2  0
  8 13  2  0
 10 13  1  0
M  END
$$$$
