
     RDKit          3D

 13 14  0  0  0  0  0  0  0  0999 V2000
  140.3019  150.2145  139.4802 Cl  0  0  0  0  0  0  0  0  0  0  0  0
  138.6758  150.1820  140.5311 C   0  0  0  0  0  0  0  0  0  0  0  0
  137.6364  149.3800  140.0902 C   0  0  0  0  0  0  0  0  0  0  0  0
  138.8645  150.7144  141.4528 C   0  0  0  0  0  0  0  0  0  0  0  0
  137.8186  150.7977  142.5169 C   0  0  0  0  0  0  0  0  0  0  0  0
  138.0486  151.4509  143.8211 C   0  0  0  0  0  0  0  0  0  0  0  0
  136.6997  150.0744  142.0183 C   0  0  0  0  0  0  0  0  0  0  0  0
  136.9142  151.6355  144.5807 C   0  0  0  0  0  0  0  0  0  0  0  0
  135.5228  150.3517  142.8943 C   0  0  0  0  0  0  0  0  0  0  0  0
  135.6487  151.0316  144.2016 C   0  0  0  0  0  0  0  0  0  0  0  0
  137.0289  152.3267  145.7825 C   0  0  0  0  0  0  0  0  0  0  0  0
  137.6587  148.7229  138.8476 C   0  0  0  0  0  0  0  0  0  0  0  0
  136.4699  149.5117  140.8408 C   0  0  0  0  0  0  0  0  0  0  0  0
  1  2  1  0
  2  3  2  0
  2  4  1  0
  4  5  2  0
  5  6  1  0
  5  7  1  0
  6  8  1  0
  7  9  1  0
  8 10  1  0
  9 10  1  0
  8 11  2  0
  3 12  1  0
  3 13  1  0
  7 13  2  0
M  END
$$$$
