
     RDKit          3D

 13 14  0  0  0  0  0  0  0  0999 V2000
  138.7086  151.1469  142.6266 C   0  0  0  0  0  0  0  0  0  0  0  0
  138.5250  151.9368  143.5112 C   0  0  0  0  0  0  0  0  0  0  0  0
  137.3811  151.6572  144.3961 C   0  0  0  0  0  0  0  0  0  0  0  0
  139.7008  151.1089  141.6121 C   0  0  0  0  0  0  0  0  0  0  0  0
  136.7115  150.4275  144.0247 C   0  0  0  0  0  0  0  0  0  0  0  0
  137.9015  150.0212  142.3179 C   0  0  0  0  0  0  0  0  0  0  0  0
  138.2227  149.2897  141.1482 C   0  0  0  0  0  0  0  0  0  0  0  0
  136.8382  152.3621  145.4464 C   0  0  0  0  0  0  0  0  0  0  0  0
  139.7070  150.3005  140.5078 C   0  0  0  0  0  0  0  0  0  0  0  0
  136.8826  149.7394  143.1910 N   0  0  0  0  0  0  0  0  0  0  0  0
  138.9672  149.3593  140.2967 C   0  0  0  0  0  0  0  0  0  0  0  0
  135.5182  152.2670  145.8814 C   0  0  0  0  0  0  0  0  0  0  0  0
  141.0306  150.6975  139.4360 Cl  0  0  0  0  0  0  0  0  0  0  0  0
  1  2  1  0
  2  3  2  0
  1  4  1  0
  3  5  1  0
  1  6  2  0
  6  7  1  0
  3  8  1  0
  4  9  2  0
  5 10  2  0
  6 10  1  0
  7 11  2  0
  9 11  1  0
  8 12  1  0
  9 13  1  0
M  END
$$$$
