
     RDKit          3D

 13 14  0  0  0  0  0  0  0  0999 V2000
  140.3019  150.2145  139.4802 Cl  0  0  0  0  0  0  0  0  0  0  0  0
  138.6758  150.1820  140.5311 C   0  0  0  0  0  0  0  0  0  0  0  0
  137.6364  149.3800  140.0902 C   0  0  0  0  0  0  0  0  0  0  0  0
  138.8645  150.7144  141.4528 C   0  0  0  0  0  0  0  0  0  0  0  0
  136.5623  149.5846  140.7692 C   0  0  0  0  0  0  0  0  0  0  0  0
  136.4105  150.3672  141.9090 C   0  0  0  0  0  0  0  0  0  0  0  0
  135.2467  150.5950  142.7376 C   0  0  0  0  0  0  0  0  0  0  0  0
  135.5637  151.2797  144.0133 C   0  0  0  0  0  0  0  0  0  0  0  0
  137.7143  150.9887  142.3935 C   0  0  0  0  0  0  0  0  0  0  0  0
  134.8437  150.9635  145.2296 C   0  0  0  0  0  0  0  0  0  0  0  0
  135.0764  151.8214  146.3949 C   0  0  0  0  0  0  0  0  0  0  0  0
  135.8947  152.9388  146.0583 C   0  0  0  0  0  0  0  0  0  0  0  0
  136.4998  152.7714  144.8232 C   0  0  0  0  0  0  0  0  0  0  0  0
  1  2  1  0
  2  3  2  0
  2  4  1  0
  3  5  1  0
  5  6  2  0
  6  7  1  0
  7  8  1  0
  4  9  2  0
  6  9  1  0
  8 10  2  0
 10 11  1  0
 11 12  1  0
  8 13  1  0
 12 13  1  0
M  END
$$$$
