
     RDKit          3D

 13 14  0  0  0  0  0  0  0  0999 V2000
  138.9697  151.3146  142.5684 C   0  0  0  0  0  0  0  0  0  0  0  0
  138.6018  152.0883  143.2657 C   0  0  0  0  0  0  0  0  0  0  0  0
  139.7627  151.4691  141.3553 C   0  0  0  0  0  0  0  0  0  0  0  0
  137.5394  151.8374  144.3779 C   0  0  0  0  0  0  0  0  0  0  0  0
  137.4014  150.5805  144.6885 C   0  0  0  0  0  0  0  0  0  0  0  0
  139.6225  150.4855  140.3438 C   0  0  0  0  0  0  0  0  0  0  0  0
  138.7453  149.4536  140.7011 C   0  0  0  0  0  0  0  0  0  0  0  0
  137.7953  149.6232  141.6587 C   0  0  0  0  0  0  0  0  0  0  0  0
  138.1242  150.4597  142.7560 C   0  0  0  0  0  0  0  0  0  0  0  0
  136.8795  150.2089  146.0396 C   0  0  0  0  0  0  0  0  0  0  0  0
  136.8757  152.8324  144.4564 C   0  0  0  0  0  0  0  0  0  0  0  0
  137.5646  149.7518  143.7908 N   0  0  0  0  0  0  0  0  0  0  0  0
  140.6418  150.5420  139.1602 C   0  0  0  0  0  0  0  0  0  0  0  0
  1  2  1  0
  1  3  1  0
  2  4  1  0
  4  5  2  0
  3  6  2  0
  6  7  1  0
  7  8  2  0
  1  9  2  0
  8  9  1  0
  5 10  1  0
  4 11  1  0
  5 12  1  0
  9 12  1  0
  6 13  1  0
M  END
$$$$
