
     RDKit          3D

 13 13  0  0  0  0  0  0  0  0999 V2000
  138.9697  151.3146  142.5684 C   0  0  0  0  0  0  0  0  0  0  0  0
  138.6018  152.0883  143.2657 C   0  0  0  0  0  0  0  0  0  0  0  0
  139.7627  151.4691  141.3553 C   0  0  0  0  0  0  0  0  0  0  0  0
  137.7629  151.7021  144.3622 C   0  0  0  0  0  0  0  0  0  0  0  0
  136.8760  152.4884  145.1644 C   0  0  0  0  0  0  0  0  0  0  0  0
  137.0828  153.8003  145.1271 C   0  0  0  0  0  0  0  0  0  0  0  0
  135.7474  152.0603  145.7143 C   0  0  0  0  0  0  0  0  0  0  0  0
  139.5959  150.5273  140.2657 C   0  0  0  0  0  0  0  0  0  0  0  0
  138.6208  149.5233  140.6187 C   0  0  0  0  0  0  0  0  0  0  0  0
  138.0520  148.8017  139.4487 C   0  0  0  0  0  0  0  0  0  0  0  0
  134.7210  152.6762  145.9039 C   0  0  0  0  0  0  0  0  0  0  0  0
  138.0186  149.6598  141.8925 C   0  0  0  0  0  0  0  0  0  0  0  0
  138.4294  150.3563  142.7471 C   0  0  0  0  0  0  0  0  0  0  0  0
  1  2  1  0
  1  3  1  0
  2  4  2  3
  4  5  1  0
  5  6  1  0
  5  7  2  3
  3  8  2  0
  8  9  1  0
  9 10  1  0
  7 11  1  0
  9 12  2  0
  1 13  2  0
 12 13  1  0
M  END
$$$$
