
     RDKit          3D

  9  9  0  0  0  0  0  0  0  0999 V2000
  138.7240  151.5758  143.3184 C   0  0  0  0  0  0  0  0  0  0  0  0
  137.9193  152.3258  143.7536 C   0  0  0  0  0  0  0  0  0  0  0  0
  136.7526  151.8075  144.4391 C   0  0  0  0  0  0  0  0  0  0  0  0
  138.5730  150.7616  142.3607 C   0  0  0  0  0  0  0  0  0  0  0  0
  136.5022  150.5129  144.1734 C   0  0  0  0  0  0  0  0  0  0  0  0
  139.5484  150.5136  141.3201 C   0  0  0  0  0  0  0  0  0  0  0  0
  139.1209  150.0566  140.1186 C   0  0  0  0  0  0  0  0  0  0  0  0
  137.3220  149.9219  142.5108 C   0  0  0  0  0  0  0  0  0  0  0  0
  135.8698  152.4821  145.4429 C   0  0  0  0  0  0  0  0  0  0  0  0
  1  2  1  0
  2  3  2  0
  1  4  2  0
  3  5  1  0
  4  6  1  0
  6  7  1  0
  4  8  1  0
  5  8  1  0
  3  9  1  0
M  END
$$$$
