
     RDKit          3D

 14 15  0  0  0  0  0  0  0  0999 V2000
  139.3428  149.9936  140.5898 C   0  0  0  0  0  0  0  0  0  0  0  0
  138.9752  149.9369  139.3605 C   0  0  0  0  0  0  0  0  0  0  0  0
  138.5862  150.0774  141.6376 C   0  0  0  0  0  0  0  0  0  0  0  0
  137.2156  149.9043  141.8335 C   0  0  0  0  0  0  0  0  0  0  0  0
  136.5021  149.8247  140.5813 C   0  0  0  0  0  0  0  0  0  0  0  0
  139.1845  150.3562  143.1502 C   0  0  0  0  0  0  0  0  0  0  0  0
  138.3557  151.1252  143.9047 C   0  0  0  0  0  0  0  0  0  0  0  0
  136.5232  150.1791  143.0233 C   0  0  0  0  0  0  0  0  0  0  0  0
  137.0670  150.7700  144.0139 C   0  0  0  0  0  0  0  0  0  0  0  0
  136.3026  151.2910  145.1627 C   0  0  0  0  0  0  0  0  0  0  0  0
  135.2116  149.6641  140.4236 C   0  0  0  0  0  0  0  0  0  0  0  0
  139.7417  149.9145  138.2109 C   0  0  0  0  0  0  0  0  0  0  0  0
  136.6499  151.4865  146.3988 O   0  0  0  0  0  0  0  0  0  0  0  0
  137.4184  149.7292  139.2659 C   0  0  0  0  0  0  0  0  0  0  0  0
  1  2  2  0
  1  3  1  0
  3  4  1  0
  4  5  2  0
  3  6  1  0
  6  7  2  0
  4  8  1  0
  7  9  1  0
  8  9  2  0
  9 10  1  0
  5 11  1  0
  2 12  1  0
 10 13  2  0
  2 14  1  0
  5 14  1  0
M  END
$$$$
