
     RDKit          3D

 14 15  0  0  0  0  0  0  0  0999 V2000
  139.5550  150.5075  140.4438 C   0  0  0  0  0  0  0  0  0  0  0  0
  139.2165  150.0149  139.3725 C   0  0  0  0  0  0  0  0  0  0  0  0
  138.8581  150.3072  141.5852 C   0  0  0  0  0  0  0  0  0  0  0  0
  139.2270  150.3459  142.8891 C   0  0  0  0  0  0  0  0  0  0  0  0
  138.5608  151.2821  143.6742 C   0  0  0  0  0  0  0  0  0  0  0  0
  137.8570  149.4552  139.3184 C   0  0  0  0  0  0  0  0  0  0  0  0
  137.4753  151.5817  143.4203 C   0  0  0  0  0  0  0  0  0  0  0  0
  137.3786  148.8877  138.1379 C   0  0  0  0  0  0  0  0  0  0  0  0
  136.7351  152.5036  144.4173 C   0  0  0  0  0  0  0  0  0  0  0  0
  136.9154  151.0404  142.2130 C   0  0  0  0  0  0  0  0  0  0  0  0
  137.4651  150.3600  141.4529 C   0  0  0  0  0  0  0  0  0  0  0  0
  135.5388  152.1501  145.0149 C   0  0  0  0  0  0  0  0  0  0  0  0
  136.6735  149.6799  140.4891 C   0  0  0  0  0  0  0  0  0  0  0  0
  134.8952  153.0950  145.9160 C   0  0  0  0  0  0  0  0  0  0  0  0
  1  2  2  0
  1  3  1  0
  3  4  1  0
  4  5  2  0
  2  6  1  0
  5  7  1  0
  6  8  1  0
  7  9  1  0
  7 10  2  0
  3 11  2  0
 10 11  1  0
  9 12  1  0
  6 13  2  0
 11 13  1  0
 12 14  1  0
M  END
$$$$
