
     RDKit          3D

 14 15  0  0  0  0  0  0  0  0999 V2000
  139.3428  149.9936  140.5898 C   0  0  0  0  0  0  0  0  0  0  0  0
  138.9752  149.9369  139.3605 C   0  0  0  0  0  0  0  0  0  0  0  0
  138.5862  150.0774  141.6376 C   0  0  0  0  0  0  0  0  0  0  0  0
  137.2156  149.9043  141.8335 C   0  0  0  0  0  0  0  0  0  0  0  0
  136.5021  149.8247  140.5813 C   0  0  0  0  0  0  0  0  0  0  0  0
  139.1845  150.3562  143.1502 C   0  0  0  0  0  0  0  0  0  0  0  0
  138.3557  151.1252  143.9047 C   0  0  0  0  0  0  0  0  0  0  0  0
  137.0207  151.0827  143.8126 C   0  0  0  0  0  0  0  0  0  0  0  0
  136.3365  150.4110  142.8287 C   0  0  0  0  0  0  0  0  0  0  0  0
  136.0668  151.8284  145.0545 C   0  0  0  0  0  0  0  0  0  0  0  0
  134.9518  151.2935  145.3438 C   0  0  0  0  0  0  0  0  0  0  0  0
  139.7619  149.9414  138.2104 C   0  0  0  0  0  0  0  0  0  0  0  0
  137.1971  149.6284  139.3147 C   0  0  0  0  0  0  0  0  0  0  0  0
  136.4421  152.7900  145.2932 O   0  0  0  0  0  0  0  0  0  0  0  0
  1  2  2  0
  1  3  1  0
  3  4  1  0
  4  5  2  0
  3  6  1  0
  6  7  2  0
  7  8  1  0
  4  9  1  0
  8  9  2  0
  8 10  1  0
 10 11  1  0
  2 12  1  0
  2 13  1  0
  5 13  1  0
 10 14  2  0
M  END
$$$$
