
     RDKit          3D

 14 15  0  0  0  0  0  0  0  0999 V2000
  138.7086  151.1469  142.6266 C   0  0  0  0  0  0  0  0  0  0  0  0
  138.5250  151.9368  143.5112 C   0  0  0  0  0  0  0  0  0  0  0  0
  137.3811  151.6572  144.3961 C   0  0  0  0  0  0  0  0  0  0  0  0
  139.7008  151.1089  141.6121 C   0  0  0  0  0  0  0  0  0  0  0  0
  136.7115  150.4275  144.0247 C   0  0  0  0  0  0  0  0  0  0  0  0
  139.4933  150.4714  140.3262 C   0  0  0  0  0  0  0  0  0  0  0  0
  138.3034  149.7102  140.4068 C   0  0  0  0  0  0  0  0  0  0  0  0
  137.7753  150.0657  142.1256 C   0  0  0  0  0  0  0  0  0  0  0  0
  137.1584  152.6311  145.4327 C   0  0  0  0  0  0  0  0  0  0  0  0
  137.9988  149.0738  139.0184 C   0  0  0  0  0  0  0  0  0  0  0  0
  137.1264  149.5921  141.2406 C   0  0  0  0  0  0  0  0  0  0  0  0
  136.9224  149.7412  143.3939 N   0  0  0  0  0  0  0  0  0  0  0  0
  135.3923  151.1210  144.7605 C   0  0  0  0  0  0  0  0  0  0  0  0
  135.9104  152.6415  145.4878 C   0  0  0  0  0  0  0  0  0  0  0  0
  1  2  1  0
  2  3  2  3
  1  4  1  0
  3  5  1  0
  4  6  2  0
  6  7  1  0
  1  8  2  0
  3  9  1  0
  7 10  1  0
  7 11  2  0
  8 11  1  0
  8 12  1  0
  5 13  2  0
  9 14  1  0
 13 14  1  0
M  END
$$$$
