
     RDKit          3D

 14 15  0  0  0  0  0  0  0  0999 V2000
  138.9697  151.3146  142.5684 C   0  0  0  0  0  0  0  0  0  0  0  0
  138.6018  152.0883  143.2657 C   0  0  0  0  0  0  0  0  0  0  0  0
  137.4864  151.7371  144.1980 C   0  0  0  0  0  0  0  0  0  0  0  0
  139.9864  151.4011  141.4219 C   0  0  0  0  0  0  0  0  0  0  0  0
  139.7068  150.7354  140.2267 C   0  0  0  0  0  0  0  0  0  0  0  0
  138.4808  149.8562  142.3647 C   0  0  0  0  0  0  0  0  0  0  0  0
  137.2037  150.4273  144.3413 C   0  0  0  0  0  0  0  0  0  0  0  0
  138.7871  149.7780  140.0794 C   0  0  0  0  0  0  0  0  0  0  0  0
  136.6054  152.5478  145.0308 C   0  0  0  0  0  0  0  0  0  0  0  0
  137.3554  149.4255  141.7854 C   0  0  0  0  0  0  0  0  0  0  0  0
  140.8475  151.1886  139.2976 C   0  0  0  0  0  0  0  0  0  0  0  0
  137.7652  149.1349  140.5144 C   0  0  0  0  0  0  0  0  0  0  0  0
  138.0573  149.4551  143.7463 N   0  0  0  0  0  0  0  0  0  0  0  0
  135.3621  152.2045  145.4491 C   0  0  0  0  0  0  0  0  0  0  0  0
  1  2  1  0
  2  3  2  0
  1  4  1  0
  4  5  2  0
  1  6  2  0
  3  7  1  0
  5  8  1  0
  3  9  1  0
  6 10  1  0
  5 11  1  0
  8 12  2  0
 10 12  1  0
  6 13  1  0
  7 13  2  0
  9 14  1  0
M  END
$$$$
