
     RDKit          3D

  9  9  0  0  0  0  0  0  0  0999 V2000
  138.9697  151.3146  142.5684 C   0  0  0  0  0  0  0  0  0  0  0  0
  138.6018  152.0883  143.2657 C   0  0  0  0  0  0  0  0  0  0  0  0
  137.4864  151.7371  144.1980 C   0  0  0  0  0  0  0  0  0  0  0  0
  137.1833  150.3878  144.2579 C   0  0  0  0  0  0  0  0  0  0  0  0
  138.6180  149.8372  142.4937 C   0  0  0  0  0  0  0  0  0  0  0  0
  136.6465  152.5356  145.1285 C   0  0  0  0  0  0  0  0  0  0  0  0
  136.8882  153.8031  145.2303 C   0  0  0  0  0  0  0  0  0  0  0  0
  137.7696  149.3861  143.4892 C   0  0  0  0  0  0  0  0  0  0  0  0
  135.5377  152.0059  145.6772 C   0  0  0  0  0  0  0  0  0  0  0  0
  1  2  1  0
  2  3  2  0
  3  4  1  0
  1  5  2  0
  3  6  1  0
  6  7  2  0
  4  8  2  0
  5  8  1  0
  6  9  1  0
M  END
$$$$
