
     RDKit          3D

  9  9  0  0  0  0  0  0  0  0999 V2000
  138.7086  151.1469  142.6266 C   0  0  0  0  0  0  0  0  0  0  0  0
  138.5250  151.9368  143.5112 C   0  0  0  0  0  0  0  0  0  0  0  0
  137.4739  151.6724  144.4643 C   0  0  0  0  0  0  0  0  0  0  0  0
  138.0107  149.8673  142.4719 C   0  0  0  0  0  0  0  0  0  0  0  0
  136.7203  150.4807  144.2961 C   0  0  0  0  0  0  0  0  0  0  0  0
  136.9968  149.5741  143.3579 C   0  0  0  0  0  0  0  0  0  0  0  0
  137.1279  152.6436  145.4919 C   0  0  0  0  0  0  0  0  0  0  0  0
  135.7748  152.6691  145.9460 C   0  0  0  0  0  0  0  0  0  0  0  0
  134.9268  151.7983  145.8451 C   0  0  0  0  0  0  0  0  0  0  0  0
  1  2  2  0
  2  3  1  0
  1  4  1  0
  3  5  2  0
  4  6  2  0
  5  6  1  0
  3  7  1  0
  7  8  1  0
  8  9  2  0
M  END
$$$$
