
     RDKit          3D

 14 15  0  0  0  0  0  0  0  0999 V2000
  138.9697  151.3146  142.5684 C   0  0  0  0  0  0  0  0  0  0  0  0
  138.6018  152.0883  143.2657 C   0  0  0  0  0  0  0  0  0  0  0  0
  137.5210  151.7905  144.2146 C   0  0  0  0  0  0  0  0  0  0  0  0
  139.9450  151.4362  141.4348 C   0  0  0  0  0  0  0  0  0  0  0  0
  137.4509  150.5150  144.7895 C   0  0  0  0  0  0  0  0  0  0  0  0
  139.6483  150.6881  140.3006 C   0  0  0  0  0  0  0  0  0  0  0  0
  138.5290  149.9149  140.3372 C   0  0  0  0  0  0  0  0  0  0  0  0
  137.6578  149.7051  141.5159 C   0  0  0  0  0  0  0  0  0  0  0  0
  138.0468  150.4771  142.6111 C   0  0  0  0  0  0  0  0  0  0  0  0
  136.4796  152.5504  144.4594 C   0  0  0  0  0  0  0  0  0  0  0  0
  137.4723  150.1130  143.7827 N   0  0  0  0  0  0  0  0  0  0  0  0
  140.7199  150.6556  139.1060 Cl  0  0  0  0  0  0  0  0  0  0  0  0
  135.5505  152.5720  145.5347 C   0  0  0  0  0  0  0  0  0  0  0  0
  135.7267  151.8521  146.5348 C   0  0  0  0  0  0  0  0  0  0  0  0
  1  2  2  0
  2  3  1  0
  1  4  1  0
  3  5  2  0
  4  6  2  0
  6  7  1  0
  7  8  2  0
  1  9  1  0
  8  9  1  0
  3 10  1  0
  5 11  1  0
  9 11  2  0
  6 12  1  0
 10 13  1  0
 13 14  2  0
M  END
$$$$
