
     RDKit          3D

 14 15  0  0  0  0  0  0  0  0999 V2000
  139.3428  149.9936  140.5898 C   0  0  0  0  0  0  0  0  0  0  0  0
  138.9752  149.9369  139.3605 C   0  0  0  0  0  0  0  0  0  0  0  0
  138.5862  150.0774  141.6376 C   0  0  0  0  0  0  0  0  0  0  0  0
  137.6061  149.8652  139.0267 C   0  0  0  0  0  0  0  0  0  0  0  0
  136.7960  149.6544  140.0716 C   0  0  0  0  0  0  0  0  0  0  0  0
  139.0847  150.3093  143.0275 C   0  0  0  0  0  0  0  0  0  0  0  0
  138.1846  150.8565  144.0192 C   0  0  0  0  0  0  0  0  0  0  0  0
  135.2933  149.6678  139.8622 C   0  0  0  0  0  0  0  0  0  0  0  0
  137.0852  151.2672  143.6119 C   0  0  0  0  0  0  0  0  0  0  0  0
  136.5145  151.0780  142.4104 C   0  0  0  0  0  0  0  0  0  0  0  0
  137.1571  150.2834  141.5041 C   0  0  0  0  0  0  0  0  0  0  0  0
  136.1794  152.0171  144.6254 C   0  0  0  0  0  0  0  0  0  0  0  0
  135.2536  151.3326  145.3623 C   0  0  0  0  0  0  0  0  0  0  0  0
  134.4583  151.9766  146.4343 C   0  0  0  0  0  0  0  0  0  0  0  0
  1  2  2  0
  1  3  1  0
  2  4  1  0
  4  5  2  0
  3  6  1  0
  6  7  2  0
  5  8  1  0
  7  9  1  0
  9 10  2  0
  3 11  2  0
  5 11  1  0
 10 11  1  0
  9 12  1  0
 12 13  2  3
 13 14  1  0
M  END
$$$$
