
     RDKit          3D

 14 15  0  0  0  0  0  0  0  0999 V2000
  139.5550  150.5075  140.4438 C   0  0  0  0  0  0  0  0  0  0  0  0
  139.2165  150.0149  139.3725 C   0  0  0  0  0  0  0  0  0  0  0  0
  138.8581  150.3072  141.5852 C   0  0  0  0  0  0  0  0  0  0  0  0
  139.2270  150.3459  142.8891 C   0  0  0  0  0  0  0  0  0  0  0  0
  138.5608  151.2821  143.6742 C   0  0  0  0  0  0  0  0  0  0  0  0
  137.8570  149.4552  139.3184 C   0  0  0  0  0  0  0  0  0  0  0  0
  137.4753  151.5817  143.4203 C   0  0  0  0  0  0  0  0  0  0  0  0
  137.4378  150.1450  141.2520 C   0  0  0  0  0  0  0  0  0  0  0  0
  136.9984  149.6431  140.1530 C   0  0  0  0  0  0  0  0  0  0  0  0
  136.5284  150.7935  142.3687 C   0  0  0  0  0  0  0  0  0  0  0  0
  136.5910  152.4202  144.2134 C   0  0  0  0  0  0  0  0  0  0  0  0
  135.5780  152.1121  145.0263 C   0  0  0  0  0  0  0  0  0  0  0  0
  135.2000  150.9110  145.3264 C   0  0  0  0  0  0  0  0  0  0  0  0
  135.4319  153.2634  145.9329 C   0  0  0  0  0  0  0  0  0  0  0  0
  1  2  2  0
  1  3  1  0
  3  4  1  0
  4  5  2  0
  2  6  1  0
  5  7  1  0
  3  8  2  0
  6  9  2  0
  8  9  1  0
  7 10  1  0
  8 10  1  0
  7 11  2  3
 11 12  1  0
 12 13  1  0
 12 14  1  0
M  END
$$$$
