
     RDKit          3D

 14 14  0  0  0  0  0  0  0  0999 V2000
  140.3019  150.2145  139.4802 Cl  0  0  0  0  0  0  0  0  0  0  0  0
  138.6758  150.1820  140.5311 C   0  0  0  0  0  0  0  0  0  0  0  0
  137.6364  149.3800  140.0902 C   0  0  0  0  0  0  0  0  0  0  0  0
  137.5436  148.9622  138.7410 C   0  0  0  0  0  0  0  0  0  0  0  0
  138.4827  150.4324  141.7166 C   0  0  0  0  0  0  0  0  0  0  0  0
  136.4911  149.4153  140.9672 C   0  0  0  0  0  0  0  0  0  0  0  0
  137.3926  150.3484  142.5006 C   0  0  0  0  0  0  0  0  0  0  0  0
  137.3763  150.9557  143.9513 C   0  0  0  0  0  0  0  0  0  0  0  0
  135.2377  148.9772  140.1847 C   0  0  0  0  0  0  0  0  0  0  0  0
  136.4661  149.9619  142.0748 N   0  0  0  0  0  0  0  0  0  0  0  0
  138.5307  151.1478  144.6698 C   0  0  0  0  0  0  0  0  0  0  0  0
  136.2303  151.3885  144.6206 C   0  0  0  0  0  0  0  0  0  0  0  0
  136.3320  152.1257  145.6369 C   0  0  0  0  0  0  0  0  0  0  0  0
  135.1094  152.7816  146.2234 C   0  0  0  0  0  0  0  0  0  0  0  0
  1  2  1  0
  2  3  2  0
  3  4  1  0
  2  5  1  0
  3  6  1  0
  5  7  2  0
  7  8  1  0
  6  9  1  0
  6 10  2  0
  7 10  1  0
  8 11  2  0
  8 12  1  0
 12 13  2  3
 13 14  1  0
M  END
$$$$
