
     RDKit          3D

 14 15  0  0  0  0  0  0  0  0999 V2000
  138.9697  151.3146  142.5684 C   0  0  0  0  0  0  0  0  0  0  0  0
  138.6018  152.0883  143.2657 C   0  0  0  0  0  0  0  0  0  0  0  0
  137.6374  151.6902  144.0814 C   0  0  0  0  0  0  0  0  0  0  0  0
  140.0289  151.3257  141.4197 C   0  0  0  0  0  0  0  0  0  0  0  0
  137.1948  150.3123  143.8930 C   0  0  0  0  0  0  0  0  0  0  0  0
  139.8113  150.4471  140.2754 C   0  0  0  0  0  0  0  0  0  0  0  0
  138.3589  149.9782  142.3814 C   0  0  0  0  0  0  0  0  0  0  0  0
  136.9986  152.5640  145.1732 C   0  0  0  0  0  0  0  0  0  0  0  0
  139.0500  149.5399  140.1678 C   0  0  0  0  0  0  0  0  0  0  0  0
  138.1751  149.3630  141.3986 C   0  0  0  0  0  0  0  0  0  0  0  0
  140.7446  150.8612  139.2213 C   0  0  0  0  0  0  0  0  0  0  0  0
  137.5030  149.6282  143.4208 N   0  0  0  0  0  0  0  0  0  0  0  0
  137.0224  149.4956  144.3244 C   0  0  0  0  0  0  0  0  0  0  0  0
  136.4952  150.2417  145.2015 C   0  0  0  0  0  0  0  0  0  0  0  0
  1  2  1  0
  2  3  2  0
  1  4  1  0
  3  5  1  0
  4  6  1  0
  1  7  2  0
  3  8  1  0
  6  9  1  0
  7 10  1  0
  9 10  2  0
  6 11  2  0
  7 12  1  0
 12 13  1  0
  5 14  1  0
 13 14  1  0
M  END
$$$$
