
     RDKit          3D

 14 15  0  0  0  0  0  0  0  0999 V2000
  139.3428  149.9936  140.5898 C   0  0  0  0  0  0  0  0  0  0  0  0
  138.9752  149.9369  139.3605 C   0  0  0  0  0  0  0  0  0  0  0  0
  138.5862  150.0774  141.6376 C   0  0  0  0  0  0  0  0  0  0  0  0
  137.2156  149.9043  141.8335 C   0  0  0  0  0  0  0  0  0  0  0  0
  136.5021  149.8247  140.5813 C   0  0  0  0  0  0  0  0  0  0  0  0
  139.1845  150.3562  143.1502 C   0  0  0  0  0  0  0  0  0  0  0  0
  138.3557  151.1252  143.9047 C   0  0  0  0  0  0  0  0  0  0  0  0
  137.0207  151.0827  143.8126 C   0  0  0  0  0  0  0  0  0  0  0  0
  136.3312  150.5156  142.9530 C   0  0  0  0  0  0  0  0  0  0  0  0
  137.3868  149.6600  139.3289 C   0  0  0  0  0  0  0  0  0  0  0  0
  136.1943  151.8478  145.0738 C   0  0  0  0  0  0  0  0  0  0  0  0
  134.9741  151.3835  145.3612 C   0  0  0  0  0  0  0  0  0  0  0  0
  134.3296  150.2831  144.8587 C   0  0  0  0  0  0  0  0  0  0  0  0
  134.4048  152.3133  146.4357 C   0  0  0  0  0  0  0  0  0  0  0  0
  1  2  2  0
  1  3  1  0
  3  4  1  0
  4  5  2  0
  3  6  1  0
  6  7  2  0
  7  8  1  0
  4  9  1  0
  8  9  2  0
  2 10  1  0
  5 10  1  0
  8 11  1  0
 11 12  2  3
 12 13  1  0
 12 14  1  0
M  END
$$$$
