
     RDKit          3D

  9  9  0  0  0  0  0  0  0  0999 V2000
  138.7240  151.5758  143.3184 C   0  0  0  0  0  0  0  0  0  0  0  0
  137.9193  152.3258  143.7536 C   0  0  0  0  0  0  0  0  0  0  0  0
  136.7526  151.8075  144.4391 C   0  0  0  0  0  0  0  0  0  0  0  0
  138.5730  150.7616  142.3607 C   0  0  0  0  0  0  0  0  0  0  0  0
  136.5022  150.5129  144.1734 C   0  0  0  0  0  0  0  0  0  0  0  0
  137.6911  149.6643  142.4369 C   0  0  0  0  0  0  0  0  0  0  0  0
  136.7945  149.5841  143.2331 C   0  0  0  0  0  0  0  0  0  0  0  0
  135.9638  152.7220  145.2840 C   0  0  0  0  0  0  0  0  0  0  0  0
  139.6543  150.6364  141.1939 C   0  0  0  0  0  0  0  0  0  0  0  0
  1  2  1  0
  2  3  2  0
  1  4  2  0
  3  5  1  0
  4  6  1  0
  5  7  1  0
  6  7  1  0
  3  8  1  0
  4  9  1  0
M  END
$$$$
