
     RDKit          3D

  9  9  0  0  0  0  0  0  0  0999 V2000
  139.3428  149.9936  140.5898 C   0  0  0  0  0  0  0  0  0  0  0  0
  138.9752  149.9369  139.3605 C   0  0  0  0  0  0  0  0  0  0  0  0
  138.5862  150.0774  141.6376 C   0  0  0  0  0  0  0  0  0  0  0  0
  137.2156  149.9043  141.8335 C   0  0  0  0  0  0  0  0  0  0  0  0
  136.5021  149.8247  140.5813 C   0  0  0  0  0  0  0  0  0  0  0  0
  139.1623  150.4261  143.1243 C   0  0  0  0  0  0  0  0  0  0  0  0
  138.2139  150.9754  144.0752 C   0  0  0  0  0  0  0  0  0  0  0  0
  135.0949  149.7489  140.3557 C   0  0  0  0  0  0  0  0  0  0  0  0
  137.4608  149.7316  139.1279 C   0  0  0  0  0  0  0  0  0  0  0  0
  1  2  2  0
  1  3  1  0
  3  4  1  0
  4  5  2  0
  3  6  1  0
  6  7  1  0
  5  8  1  0
  2  9  1  0
  5  9  1  0
M  END
$$$$
