
     RDKit          3D

 10  9  0  0  0  0  0  0  0  0999 V2000
  140.3019  150.2145  139.4802 Cl  0  0  0  0  0  0  0  0  0  0  0  0
  138.6758  150.1820  140.5311 C   0  0  0  0  0  0  0  0  0  0  0  0
  137.6364  149.3800  140.0902 C   0  0  0  0  0  0  0  0  0  0  0  0
  137.5436  148.9622  138.7410 C   0  0  0  0  0  0  0  0  0  0  0  0
  138.4827  150.4324  141.7166 C   0  0  0  0  0  0  0  0  0  0  0  0
  137.4066  150.4218  142.5539 C   0  0  0  0  0  0  0  0  0  0  0  0
  137.3042  150.9828  143.8954 C   0  0  0  0  0  0  0  0  0  0  0  0
  136.3213  150.9809  144.7172 C   0  0  0  0  0  0  0  0  0  0  0  0
  135.9991  152.2180  145.4552 C   0  0  0  0  0  0  0  0  0  0  0  0
  134.7831  152.3761  146.1246 C   0  0  0  0  0  0  0  0  0  0  0  0
  1  2  1  0
  2  3  2  3
  3  4  1  0
  2  5  1  0
  5  6  2  3
  6  7  1  0
  7  8  1  0
  8  9  1  0
  9 10  1  0
M  END
$$$$
