
     RDKit          3D

 10 11  0  0  0  0  0  0  0  0999 V2000
  138.9697  151.3146  142.5684 C   0  0  0  0  0  0  0  0  0  0  0  0
  138.6018  152.0883  143.2657 C   0  0  0  0  0  0  0  0  0  0  0  0
  137.6687  151.8115  144.0583 C   0  0  0  0  0  0  0  0  0  0  0  0
  137.4111  150.3597  144.4812 C   0  0  0  0  0  0  0  0  0  0  0  0
  136.7342  152.6392  144.8895 C   0  0  0  0  0  0  0  0  0  0  0  0
  138.6202  149.8844  142.6454 C   0  0  0  0  0  0  0  0  0  0  0  0
  135.4452  152.2536  145.2446 C   0  0  0  0  0  0  0  0  0  0  0  0
  136.5030  150.0748  145.5485 C   0  0  0  0  0  0  0  0  0  0  0  0
  137.9863  149.4334  143.7922 C   0  0  0  0  0  0  0  0  0  0  0  0
  135.4963  151.2234  146.0541 C   0  0  0  0  0  0  0  0  0  0  0  0
  1  2  2  0
  2  3  1  0
  3  4  2  0
  3  5  1  0
  1  6  1  0
  5  7  2  0
  4  8  1  0
  4  9  1  0
  6  9  2  0
  7 10  1  0
  8 10  2  0
M  END
$$$$
