
     RDKit          3D

  9  9  0  0  0  0  0  0  0  0999 V2000
  140.3019  150.2145  139.4802 Cl  0  0  0  0  0  0  0  0  0  0  0  0
  138.6758  150.1820  140.5311 C   0  0  0  0  0  0  0  0  0  0  0  0
  137.6364  149.3800  140.0902 C   0  0  0  0  0  0  0  0  0  0  0  0
  139.2345  150.7148  141.5757 C   0  0  0  0  0  0  0  0  0  0  0  0
  138.3506  151.0464  142.3754 C   0  0  0  0  0  0  0  0  0  0  0  0
  136.9448  150.5062  142.2887 C   0  0  0  0  0  0  0  0  0  0  0  0
  137.3147  148.7680  139.0062 C   0  0  0  0  0  0  0  0  0  0  0  0
  138.4107  151.6509  143.8762 C   0  0  0  0  0  0  0  0  0  0  0  0
  136.5558  149.7883  141.0819 C   0  0  0  0  0  0  0  0  0  0  0  0
  1  2  1  0
  2  3  1  0
  2  4  2  0
  4  5  1  0
  5  6  2  0
  3  7  1  0
  5  8  1  0
  3  9  2  0
  6  9  1  0
M  END
$$$$
