
     RDKit          3D

 10 11  0  0  0  0  0  0  0  0999 V2000
  139.2620  151.0921  142.4039 C   0  0  0  0  0  0  0  0  0  0  0  0
  138.8618  152.1315  142.9023 C   0  0  0  0  0  0  0  0  0  0  0  0
  137.9130  151.7995  143.7812 C   0  0  0  0  0  0  0  0  0  0  0  0
  138.8259  150.3979  141.6057 C   0  0  0  0  0  0  0  0  0  0  0  0
  137.6638  149.9538  141.7688 C   0  0  0  0  0  0  0  0  0  0  0  0
  137.5091  152.6033  144.9557 C   0  0  0  0  0  0  0  0  0  0  0  0
  136.7930  150.5043  142.9032 C   0  0  0  0  0  0  0  0  0  0  0  0
  136.8867  151.2180  143.8061 C   0  0  0  0  0  0  0  0  0  0  0  0
  135.8693  151.3696  144.7949 C   0  0  0  0  0  0  0  0  0  0  0  0
  136.4015  152.3241  145.5372 C   0  0  0  0  0  0  0  0  0  0  0  0
  1  2  1  0
  2  3  2  0
  1  4  2  0
  4  5  1  0
  3  6  1  0
  5  7  2  0
  3  8  1  0
  7  8  1  0
  8  9  2  0
  6 10  2  0
  9 10  1  0
M  END
$$$$
