
     RDKit          3D

 10 11  0  0  0  0  0  0  0  0999 V2000
  138.9697  151.3146  142.5684 C   0  0  0  0  0  0  0  0  0  0  0  0
  138.6018  152.0883  143.2657 C   0  0  0  0  0  0  0  0  0  0  0  0
  137.6687  151.8115  144.0583 C   0  0  0  0  0  0  0  0  0  0  0  0
  138.4238  149.9019  142.6316 C   0  0  0  0  0  0  0  0  0  0  0  0
  137.0853  152.8322  145.0064 C   0  0  0  0  0  0  0  0  0  0  0  0
  135.8131  152.6633  145.6298 C   0  0  0  0  0  0  0  0  0  0  0  0
  135.2593  151.3554  145.2720 C   0  0  0  0  0  0  0  0  0  0  0  0
  136.0194  150.4595  144.5707 C   0  0  0  0  0  0  0  0  0  0  0  0
  137.2503  150.5738  143.9444 C   0  0  0  0  0  0  0  0  0  0  0  0
  137.6884  149.6107  143.3810 N   0  0  0  0  0  0  0  0  0  0  0  0
  1  2  2  0
  2  3  1  0
  1  4  1  0
  3  5  1  0
  5  6  2  0
  6  7  1  0
  7  8  2  0
  3  9  2  0
  8  9  1  0
  4 10  2  0
  9 10  1  0
M  END
$$$$
