
     RDKit          3D

 10 10  0  0  0  0  0  0  0  0999 V2000
  139.2620  151.0921  142.4039 C   0  0  0  0  0  0  0  0  0  0  0  0
  138.8618  152.1315  142.9023 C   0  0  0  0  0  0  0  0  0  0  0  0
  137.9130  151.7995  143.7812 C   0  0  0  0  0  0  0  0  0  0  0  0
  138.8259  150.3979  141.6057 C   0  0  0  0  0  0  0  0  0  0  0  0
  137.6638  149.9538  141.7688 C   0  0  0  0  0  0  0  0  0  0  0  0
  136.8708  149.2111  140.7606 C   0  0  0  0  0  0  0  0  0  0  0  0
  136.7431  150.9745  143.2785 C   0  0  0  0  0  0  0  0  0  0  0  0
  135.5771  151.3002  144.2643 C   0  0  0  0  0  0  0  0  0  0  0  0
  136.7170  150.1756  142.3465 C   0  0  0  0  0  0  0  0  0  0  0  0
  135.1031  150.6326  145.0902 C   0  0  0  0  0  0  0  0  0  0  0  0
  1  2  1  0
  2  3  2  0
  1  4  2  0
  4  5  1  0
  5  6  1  0
  3  7  1  0
  7  8  1  0
  5  9  2  0
  7  9  2  0
  8 10  2  0
M  END
$$$$
