
     RDKit          3D

 10 10  0  0  0  0  0  0  0  0999 V2000
  138.7240  151.5758  143.3184 C   0  0  0  0  0  0  0  0  0  0  0  0
  137.9193  152.3258  143.7536 C   0  0  0  0  0  0  0  0  0  0  0  0
  136.7526  151.8075  144.4391 C   0  0  0  0  0  0  0  0  0  0  0  0
  136.7825  150.4607  144.6808 C   0  0  0  0  0  0  0  0  0  0  0  0
  138.7110  150.3798  142.9931 C   0  0  0  0  0  0  0  0  0  0  0  0
  139.6064  149.6235  142.1662 C   0  0  0  0  0  0  0  0  0  0  0  0
  137.6332  149.7033  143.8880 C   0  0  0  0  0  0  0  0  0  0  0  0
  135.7490  152.6710  145.2878 C   0  0  0  0  0  0  0  0  0  0  0  0
  139.4766  150.0455  140.7567 C   0  0  0  0  0  0  0  0  0  0  0  0
  140.3602  150.2750  140.1093 C   0  0  0  0  0  0  0  0  0  0  0  0
  1  2  1  0
  2  3  2  0
  3  4  1  0
  1  5  2  0
  5  6  1  0
  4  7  2  0
  5  7  1  0
  3  8  1  0
  6  9  1  0
  9 10  2  0
M  END
$$$$
