
     RDKit          3D

 10 10  0  0  0  0  0  0  0  0999 V2000
  138.9697  151.3146  142.5684 C   0  0  0  0  0  0  0  0  0  0  0  0
  138.6018  152.0883  143.2657 C   0  0  0  0  0  0  0  0  0  0  0  0
  137.4864  151.7371  144.1980 C   0  0  0  0  0  0  0  0  0  0  0  0
  139.9864  151.4011  141.4219 C   0  0  0  0  0  0  0  0  0  0  0  0
  136.7358  152.5376  145.0264 C   0  0  0  0  0  0  0  0  0  0  0  0
  139.7034  150.7343  140.1991 C   0  0  0  0  0  0  0  0  0  0  0  0
  138.6320  149.7541  140.4220 C   0  0  0  0  0  0  0  0  0  0  0  0
  138.1706  150.0879  142.1973 C   0  0  0  0  0  0  0  0  0  0  0  0
  137.0248  153.8656  145.1856 O   0  0  0  0  0  0  0  0  0  0  0  0
  135.6246  152.0697  145.6521 O   0  0  0  0  0  0  0  0  0  0  0  0
  1  2  1  0
  2  3  2  3
  1  4  1  0
  3  5  1  0
  4  6  2  0
  6  7  1  0
  1  8  2  0
  7  8  1  0
  5  9  2  0
  5 10  1  0
M  END
$$$$
