
     RDKit          3D

 10 10  0  0  0  0  0  0  0  0999 V2000
  138.9697  151.3146  142.5684 C   0  0  0  0  0  0  0  0  0  0  0  0
  138.6018  152.0883  143.2657 C   0  0  0  0  0  0  0  0  0  0  0  0
  137.6374  151.6902  144.0814 C   0  0  0  0  0  0  0  0  0  0  0  0
  140.0289  151.3257  141.4197 C   0  0  0  0  0  0  0  0  0  0  0  0
  137.1948  150.3123  143.8930 C   0  0  0  0  0  0  0  0  0  0  0  0
  139.8113  150.4471  140.2754 C   0  0  0  0  0  0  0  0  0  0  0  0
  138.3146  149.9305  142.4430 C   0  0  0  0  0  0  0  0  0  0  0  0
  140.6766  150.7855  139.1049 C   0  0  0  0  0  0  0  0  0  0  0  0
  137.4976  149.4889  143.2751 C   0  0  0  0  0  0  0  0  0  0  0  0
  136.8987  152.7256  145.2846 C   0  0  0  0  0  0  0  0  0  0  0  0
  1  2  1  0
  2  3  2  0
  1  4  1  0
  3  5  1  0
  4  6  1  0
  1  7  2  0
  6  8  1  0
  5  9  2  0
  7  9  1  0
  3 10  1  0
M  END
$$$$
