
     RDKit          3D

 10 10  0  0  0  0  0  0  0  0999 V2000
  140.3019  150.2145  139.4802 Cl  0  0  0  0  0  0  0  0  0  0  0  0
  138.6758  150.1820  140.5311 C   0  0  0  0  0  0  0  0  0  0  0  0
  137.6364  149.3800  140.0902 C   0  0  0  0  0  0  0  0  0  0  0  0
  139.2345  150.7148  141.5757 C   0  0  0  0  0  0  0  0  0  0  0  0
  138.3506  151.0464  142.3754 C   0  0  0  0  0  0  0  0  0  0  0  0
  137.5082  148.8204  138.8309 C   0  0  0  0  0  0  0  0  0  0  0  0
  136.5827  149.7696  140.9317 C   0  0  0  0  0  0  0  0  0  0  0  0
  138.6187  151.7541  143.7330 C   0  0  0  0  0  0  0  0  0  0  0  0
  137.6301  151.9667  144.4855 C   0  0  0  0  0  0  0  0  0  0  0  0
  136.8848  150.5336  142.2123 C   0  0  0  0  0  0  0  0  0  0  0  0
  1  2  1  0
  2  3  1  0
  2  4  2  0
  4  5  1  0
  3  6  1  0
  3  7  2  0
  5  8  1  0
  8  9  2  0
  5 10  2  0
  7 10  1  0
M  END
$$$$
