
     RDKit          3D

 10 10  0  0  0  0  0  0  0  0999 V2000
  139.5550  150.5075  140.4438 C   0  0  0  0  0  0  0  0  0  0  0  0
  139.2165  150.0149  139.3725 C   0  0  0  0  0  0  0  0  0  0  0  0
  138.8581  150.3072  141.5852 C   0  0  0  0  0  0  0  0  0  0  0  0
  139.2270  150.3459  142.8891 C   0  0  0  0  0  0  0  0  0  0  0  0
  138.5608  151.2821  143.6742 C   0  0  0  0  0  0  0  0  0  0  0  0
  137.3263  151.7109  143.2034 C   0  0  0  0  0  0  0  0  0  0  0  0
  136.9645  151.3797  141.9429 C   0  0  0  0  0  0  0  0  0  0  0  0
  137.6042  150.5907  141.1281 C   0  0  0  0  0  0  0  0  0  0  0  0
  140.0506  149.8003  138.1790 C   0  0  0  0  0  0  0  0  0  0  0  0
  136.5324  152.7123  144.2645 C   0  0  0  0  0  0  0  0  0  0  0  0
  1  2  2  3
  1  3  1  0
  3  4  1  0
  4  5  2  0
  5  6  1  0
  6  7  2  0
  3  8  2  0
  7  8  1  0
  2  9  1  0
  6 10  1  0
M  END
$$$$
