
     RDKit          3D

 10 10  0  0  0  0  0  0  0  0999 V2000
  140.3019  150.2145  139.4802 Cl  0  0  0  0  0  0  0  0  0  0  0  0
  138.6758  150.1820  140.5311 C   0  0  0  0  0  0  0  0  0  0  0  0
  137.6364  149.3800  140.0902 C   0  0  0  0  0  0  0  0  0  0  0  0
  138.7704  150.9236  141.6515 C   0  0  0  0  0  0  0  0  0  0  0  0
  138.1279  150.9106  142.4389 C   0  0  0  0  0  0  0  0  0  0  0  0
  136.8217  150.0703  142.3023 C   0  0  0  0  0  0  0  0  0  0  0  0
  138.0755  151.5217  144.1961 Cl  0  0  0  0  0  0  0  0  0  0  0  0
  135.7835  150.1846  143.2411 C   0  0  0  0  0  0  0  0  0  0  0  0
  137.5798  148.8507  138.8625 C   0  0  0  0  0  0  0  0  0  0  0  0
  136.5141  149.4669  141.0413 C   0  0  0  0  0  0  0  0  0  0  0  0
  1  2  1  0
  2  3  1  0
  2  4  2  0
  4  5  1  0
  5  6  2  0
  5  7  1  0
  6  8  1  0
  3  9  1  0
  3 10  2  0
  6 10  1  0
M  END
$$$$
