
     RDKit          3D

 11 12  0  0  0  0  0  0  0  0999 V2000
  140.3019  150.2145  139.4802 Cl  0  0  0  0  0  0  0  0  0  0  0  0
  138.6758  150.1820  140.5311 C   0  0  0  0  0  0  0  0  0  0  0  0
  137.6364  149.3800  140.0902 C   0  0  0  0  0  0  0  0  0  0  0  0
  139.0293  150.8783  141.6179 C   0  0  0  0  0  0  0  0  0  0  0  0
  136.6543  149.6401  140.8165 C   0  0  0  0  0  0  0  0  0  0  0  0
  138.0311  151.0105  142.5251 C   0  0  0  0  0  0  0  0  0  0  0  0
  138.1755  151.7013  143.8064 C   0  0  0  0  0  0  0  0  0  0  0  0
  137.1234  151.8706  144.6589 C   0  0  0  0  0  0  0  0  0  0  0  0
  135.9769  151.1765  144.3212 C   0  0  0  0  0  0  0  0  0  0  0  0
  136.6527  150.3848  142.1269 C   0  0  0  0  0  0  0  0  0  0  0  0
  135.6679  150.6361  143.0878 C   0  0  0  0  0  0  0  0  0  0  0  0
  1  2  1  0
  2  3  2  0
  2  4  1  0
  3  5  1  0
  4  6  2  0
  6  7  1  0
  7  8  2  0
  8  9  1  0
  5 10  2  0
  6 10  1  0
  9 11  2  0
 10 11  1  0
M  END
$$$$
