
     RDKit          3D

 11 12  0  0  0  0  0  0  0  0999 V2000
  139.2620  151.0921  142.4039 C   0  0  0  0  0  0  0  0  0  0  0  0
  138.8618  152.1315  142.9023 C   0  0  0  0  0  0  0  0  0  0  0  0
  137.7838  151.8936  143.8932 C   0  0  0  0  0  0  0  0  0  0  0  0
  137.3596  150.5423  144.0627 C   0  0  0  0  0  0  0  0  0  0  0  0
  136.3232  150.4823  145.1226 C   0  0  0  0  0  0  0  0  0  0  0  0
  139.2662  149.7547  142.8065 C   0  0  0  0  0  0  0  0  0  0  0  0
  138.1300  149.4969  143.5633 C   0  0  0  0  0  0  0  0  0  0  0  0
  135.7805  151.6674  145.3651 C   0  0  0  0  0  0  0  0  0  0  0  0
  140.2694  151.3649  141.2293 C   0  0  0  0  0  0  0  0  0  0  0  0
  136.8893  152.7933  144.5936 C   0  0  0  0  0  0  0  0  0  0  0  0
  140.0257  150.6592  140.1266 C   0  0  0  0  0  0  0  0  0  0  0  0
  1  2  1  0
  2  3  2  0
  3  4  1  0
  4  5  2  0
  1  6  1  0
  4  7  1  0
  6  7  2  0
  5  8  1  0
  1  9  2  3
  3 10  1  0
  8 10  2  0
  9 11  1  0
M  END
$$$$
