
     RDKit          3D

 11 12  0  0  0  0  0  0  0  0999 V2000
  138.9697  151.3146  142.5684 C   0  0  0  0  0  0  0  0  0  0  0  0
  138.6018  152.0883  143.2657 C   0  0  0  0  0  0  0  0  0  0  0  0
  137.4864  151.7371  144.1980 C   0  0  0  0  0  0  0  0  0  0  0  0
  139.9864  151.4011  141.4219 C   0  0  0  0  0  0  0  0  0  0  0  0
  138.4091  150.0537  142.3802 C   0  0  0  0  0  0  0  0  0  0  0  0
  137.0323  150.4875  144.0493 C   0  0  0  0  0  0  0  0  0  0  0  0
  137.4445  149.5281  143.2052 C   0  0  0  0  0  0  0  0  0  0  0  0
  139.9795  150.5853  140.2873 C   0  0  0  0  0  0  0  0  0  0  0  0
  139.2095  149.4940  140.1859 C   0  0  0  0  0  0  0  0  0  0  0  0
  138.4335  149.2546  141.3311 N   0  0  0  0  0  0  0  0  0  0  0  0
  137.0401  152.7495  145.1365 C   0  0  0  0  0  0  0  0  0  0  0  0
  1  2  1  0
  2  3  2  0
  1  4  1  0
  1  5  2  0
  3  6  1  0
  5  7  1  0
  6  7  2  0
  4  8  2  0
  8  9  1  0
  5 10  1  0
  9 10  2  0
  3 11  1  0
M  END
$$$$
