
     RDKit          3D

 11 12  0  0  0  0  0  0  0  0999 V2000
  138.7086  151.1469  142.6266 C   0  0  0  0  0  0  0  0  0  0  0  0
  138.5250  151.9368  143.5112 C   0  0  0  0  0  0  0  0  0  0  0  0
  137.3811  151.6572  144.3961 C   0  0  0  0  0  0  0  0  0  0  0  0
  139.7008  151.1089  141.6121 C   0  0  0  0  0  0  0  0  0  0  0  0
  136.7115  150.4275  144.0247 C   0  0  0  0  0  0  0  0  0  0  0  0
  139.4324  150.9053  140.3434 C   0  0  0  0  0  0  0  0  0  0  0  0
  138.1388  150.3145  140.1755 C   0  0  0  0  0  0  0  0  0  0  0  0
  137.2061  149.9737  141.1696 C   0  0  0  0  0  0  0  0  0  0  0  0
  135.9163  149.3748  141.0061 C   0  0  0  0  0  0  0  0  0  0  0  0
  137.5039  150.4065  142.5547 C   0  0  0  0  0  0  0  0  0  0  0  0
  136.8477  152.4662  145.5215 C   0  0  0  0  0  0  0  0  0  0  0  0
  1  2  1  0
  2  3  2  0
  1  4  1  0
  3  5  1  0
  4  6  2  0
  6  7  1  0
  7  8  2  0
  8  9  1  0
  1 10  2  0
  5 10  1  0
  8 10  1  0
  3 11  1  0
M  END
$$$$
