
     RDKit          3D

 11 11  0  0  0  0  0  0  0  0999 V2000
  140.3019  150.2145  139.4802 Cl  0  0  0  0  0  0  0  0  0  0  0  0
  138.6758  150.1820  140.5311 C   0  0  0  0  0  0  0  0  0  0  0  0
  137.6364  149.3800  140.0902 C   0  0  0  0  0  0  0  0  0  0  0  0
  138.7467  150.9432  141.6725 C   0  0  0  0  0  0  0  0  0  0  0  0
  137.7505  150.8693  142.6256 C   0  0  0  0  0  0  0  0  0  0  0  0
  136.5540  149.5179  140.9615 C   0  0  0  0  0  0  0  0  0  0  0  0
  137.8486  151.5544  143.9015 C   0  0  0  0  0  0  0  0  0  0  0  0
  136.6342  150.3033  142.2013 C   0  0  0  0  0  0  0  0  0  0  0  0
  136.7459  151.5122  144.7504 C   0  0  0  0  0  0  0  0  0  0  0  0
  136.2979  150.5464  145.3027 C   0  0  0  0  0  0  0  0  0  0  0  0
  136.4236  152.8237  145.3757 C   0  0  0  0  0  0  0  0  0  0  0  0
  1  2  1  0
  2  3  2  0
  2  4  1  0
  4  5  2  0
  3  6  1  0
  5  7  1  0
  5  8  1  0
  6  8  2  0
  7  9  1  0
  9 10  2  0
  9 11  1  0
M  END
$$$$
