
     RDKit          3D

 11 12  0  0  0  0  0  0  0  0999 V2000
  138.9697  151.3146  142.5684 C   0  0  0  0  0  0  0  0  0  0  0  0
  138.6018  152.0883  143.2657 C   0  0  0  0  0  0  0  0  0  0  0  0
  139.7627  151.4691  141.3553 C   0  0  0  0  0  0  0  0  0  0  0  0
  137.5394  151.8374  144.3779 C   0  0  0  0  0  0  0  0  0  0  0  0
  137.4014  150.5805  144.6885 C   0  0  0  0  0  0  0  0  0  0  0  0
  139.6225  150.4855  140.3438 C   0  0  0  0  0  0  0  0  0  0  0  0
  138.7453  149.4536  140.7011 C   0  0  0  0  0  0  0  0  0  0  0  0
  138.3245  148.6198  139.5102 C   0  0  0  0  0  0  0  0  0  0  0  0
  138.1863  150.0155  142.6588 C   0  0  0  0  0  0  0  0  0  0  0  0
  137.4867  149.6116  143.8170 C   0  0  0  0  0  0  0  0  0  0  0  0
  138.0378  149.2118  141.8039 N   0  0  0  0  0  0  0  0  0  0  0  0
  1  2  1  0
  1  3  1  0
  2  4  1  0
  4  5  2  0
  3  6  2  0
  6  7  1  0
  7  8  1  0
  1  9  2  0
  5 10  1  0
  9 10  1  0
  7 11  2  0
  9 11  1  0
M  END
$$$$
