
     RDKit          3D

 11 12  0  0  0  0  0  0  0  0999 V2000
  138.7240  151.5758  143.3184 C   0  0  0  0  0  0  0  0  0  0  0  0
  137.9193  152.3258  143.7536 C   0  0  0  0  0  0  0  0  0  0  0  0
  136.7526  151.8075  144.4391 C   0  0  0  0  0  0  0  0  0  0  0  0
  136.7825  150.4607  144.6808 C   0  0  0  0  0  0  0  0  0  0  0  0
  135.8633  152.6144  145.2382 C   0  0  0  0  0  0  0  0  0  0  0  0
  138.4720  150.1666  143.2072 C   0  0  0  0  0  0  0  0  0  0  0  0
  135.9938  153.8877  145.3789 C   0  0  0  0  0  0  0  0  0  0  0  0
  134.7465  151.9838  145.8269 C   0  0  0  0  0  0  0  0  0  0  0  0
  135.8311  149.9247  145.6219 C   0  0  0  0  0  0  0  0  0  0  0  0
  134.9028  150.6554  146.2292 C   0  0  0  0  0  0  0  0  0  0  0  0
  137.6720  149.6578  143.9767 N   0  0  0  0  0  0  0  0  0  0  0  0
  1  2  1  0
  2  3  2  0
  3  4  1  0
  3  5  1  0
  1  6  2  0
  5  7  1  0
  5  8  2  0
  4  9  1  0
  8 10  1  0
  9 10  2  0
  4 11  2  0
  6 11  1  0
M  END
$$$$
