
     RDKit          3D

 11 12  0  0  0  0  0  0  0  0999 V2000
  139.2620  151.0921  142.4039 C   0  0  0  0  0  0  0  0  0  0  0  0
  138.8618  152.1315  142.9023 C   0  0  0  0  0  0  0  0  0  0  0  0
  137.9130  151.7995  143.7812 C   0  0  0  0  0  0  0  0  0  0  0  0
  138.8259  150.3979  141.6057 C   0  0  0  0  0  0  0  0  0  0  0  0
  137.6638  149.9538  141.7688 C   0  0  0  0  0  0  0  0  0  0  0  0
  137.5091  152.6033  144.9557 C   0  0  0  0  0  0  0  0  0  0  0  0
  136.8131  150.7653  143.7756 C   0  0  0  0  0  0  0  0  0  0  0  0
  135.9244  150.8037  144.8950 C   0  0  0  0  0  0  0  0  0  0  0  0
  136.9542  149.4283  140.5394 C   0  0  0  0  0  0  0  0  0  0  0  0
  136.7646  150.1345  142.6376 N   0  0  0  0  0  0  0  0  0  0  0  0
  136.2482  151.8259  145.6398 C   0  0  0  0  0  0  0  0  0  0  0  0
  1  2  1  0
  2  3  2  0
  1  4  2  0
  4  5  1  0
  3  6  1  0
  3  7  1  0
  7  8  2  0
  5  9  1  0
  5 10  2  0
  7 10  1  0
  6 11  2  0
  8 11  1  0
M  END
$$$$
