
     RDKit          3D

 11 11  0  0  0  0  0  0  0  0999 V2000
  138.7240  151.5758  143.3184 C   0  0  0  0  0  0  0  0  0  0  0  0
  137.9193  152.3258  143.7536 C   0  0  0  0  0  0  0  0  0  0  0  0
  136.7526  151.8075  144.4391 C   0  0  0  0  0  0  0  0  0  0  0  0
  138.5730  150.7616  142.3607 C   0  0  0  0  0  0  0  0  0  0  0  0
  137.2365  150.1146  142.4832 C   0  0  0  0  0  0  0  0  0  0  0  0
  136.3128  150.6161  143.4674 C   0  0  0  0  0  0  0  0  0  0  0  0
  135.7786  152.3692  145.2464 C   0  0  0  0  0  0  0  0  0  0  0  0
  139.5235  150.0434  141.3321 C   0  0  0  0  0  0  0  0  0  0  0  0
  134.9722  151.6645  145.9828 C   0  0  0  0  0  0  0  0  0  0  0  0
  135.8114  153.7482  145.3787 C   0  0  0  0  0  0  0  0  0  0  0  0
  135.1644  154.3074  146.4313 C   0  0  0  0  0  0  0  0  0  0  0  0
  1  2  1  0
  2  3  2  0
  1  4  2  0
  4  5  1  0
  3  6  1  0
  5  6  2  0
  3  7  1  0
  4  8  1  0
  7  9  1  0
  7 10  2  3
 10 11  1  0
M  END
$$$$
