
     RDKit          3D

 11 12  0  0  0  0  0  0  0  0999 V2000
  139.3428  149.9936  140.5898 C   0  0  0  0  0  0  0  0  0  0  0  0
  138.9752  149.9369  139.3605 C   0  0  0  0  0  0  0  0  0  0  0  0
  138.5862  150.0774  141.6376 C   0  0  0  0  0  0  0  0  0  0  0  0
  137.6061  149.8652  139.0267 C   0  0  0  0  0  0  0  0  0  0  0  0
  137.1311  149.9324  141.4833 C   0  0  0  0  0  0  0  0  0  0  0  0
  136.2248  150.0770  142.5714 C   0  0  0  0  0  0  0  0  0  0  0  0
  136.7547  150.9539  143.4667 C   0  0  0  0  0  0  0  0  0  0  0  0
  136.5804  149.7890  140.0752 C   0  0  0  0  0  0  0  0  0  0  0  0
  137.7599  151.8265  143.3560 C   0  0  0  0  0  0  0  0  0  0  0  0
  135.8806  151.0934  144.8005 C   0  0  0  0  0  0  0  0  0  0  0  0
  138.9042  151.3855  142.7056 C   0  0  0  0  0  0  0  0  0  0  0  0
  1  2  2  0
  1  3  1  0
  2  4  1  0
  3  5  2  0
  5  6  1  0
  6  7  1  0
  4  8  2  0
  5  8  1  0
  7  9  2  0
  7 10  1  0
  3 11  1  0
  9 11  1  0
M  END
$$$$
