
     RDKit          3D

 11 12  0  0  0  0  0  0  0  0999 V2000
  139.3428  149.9936  140.5898 C   0  0  0  0  0  0  0  0  0  0  0  0
  138.9752  149.9369  139.3605 C   0  0  0  0  0  0  0  0  0  0  0  0
  138.5862  150.0774  141.6376 C   0  0  0  0  0  0  0  0  0  0  0  0
  137.2156  149.9043  141.8335 C   0  0  0  0  0  0  0  0  0  0  0  0
  136.5021  149.8247  140.5813 C   0  0  0  0  0  0  0  0  0  0  0  0
  139.1845  150.3562  143.1502 C   0  0  0  0  0  0  0  0  0  0  0  0
  138.3557  151.1252  143.9047 C   0  0  0  0  0  0  0  0  0  0  0  0
  136.5232  150.1791  143.0233 C   0  0  0  0  0  0  0  0  0  0  0  0
  137.5407  149.7046  139.0554 C   0  0  0  0  0  0  0  0  0  0  0  0
  137.0643  150.7677  144.0388 C   0  0  0  0  0  0  0  0  0  0  0  0
  136.2362  151.1763  145.3932 C   0  0  0  0  0  0  0  0  0  0  0  0
  1  2  2  0
  1  3  1  0
  3  4  1  0
  4  5  2  0
  3  6  1  0
  6  7  2  0
  4  8  1  0
  2  9  1  0
  5  9  1  0
  7 10  1  0
  8 10  2  0
 10 11  1  0
M  END
$$$$
