
     RDKit          3D

 11 12  0  0  0  0  0  0  0  0999 V2000
  139.5550  150.5075  140.4438 C   0  0  0  0  0  0  0  0  0  0  0  0
  139.2165  150.0149  139.3725 C   0  0  0  0  0  0  0  0  0  0  0  0
  138.8581  150.3072  141.5852 C   0  0  0  0  0  0  0  0  0  0  0  0
  139.2270  150.3459  142.8891 C   0  0  0  0  0  0  0  0  0  0  0  0
  138.5608  151.2821  143.6742 C   0  0  0  0  0  0  0  0  0  0  0  0
  137.8570  149.4552  139.3184 C   0  0  0  0  0  0  0  0  0  0  0  0
  137.1663  149.5188  140.5135 C   0  0  0  0  0  0  0  0  0  0  0  0
  137.3622  151.4929  143.6726 C   0  0  0  0  0  0  0  0  0  0  0  0
  137.4449  150.0606  141.5082 C   0  0  0  0  0  0  0  0  0  0  0  0
  136.5693  150.6288  142.6589 C   0  0  0  0  0  0  0  0  0  0  0  0
  136.5750  151.7960  144.7018 O   0  0  0  0  0  0  0  0  0  0  0  0
  1  2  2  0
  1  3  1  0
  3  4  1  0
  4  5  2  0
  2  6  1  0
  6  7  2  0
  5  8  1  0
  3  9  2  0
  7  9  1  0
  8 10  1  0
  9 10  1  0
  8 11  1  0
M  END
$$$$
