
     RDKit          3D

 11 11  0  0  0  0  0  0  0  0999 V2000
  139.3428  149.9936  140.5898 C   0  0  0  0  0  0  0  0  0  0  0  0
  138.9752  149.9369  139.3605 C   0  0  0  0  0  0  0  0  0  0  0  0
  138.5862  150.0774  141.6376 C   0  0  0  0  0  0  0  0  0  0  0  0
  137.6061  149.8652  139.0267 C   0  0  0  0  0  0  0  0  0  0  0  0
  137.1311  149.9324  141.4833 C   0  0  0  0  0  0  0  0  0  0  0  0
  137.0443  149.6341  137.7975 C   0  0  0  0  0  0  0  0  0  0  0  0
  136.2646  150.0723  142.6719 C   0  0  0  0  0  0  0  0  0  0  0  0
  136.5327  149.7871  140.1535 C   0  0  0  0  0  0  0  0  0  0  0  0
  135.5405  151.0032  142.9844 C   0  0  0  0  0  0  0  0  0  0  0  0
  135.3209  151.3649  144.4897 C   0  0  0  0  0  0  0  0  0  0  0  0
  136.4692  151.0691  145.2684 C   0  0  0  0  0  0  0  0  0  0  0  0
  1  2  2  0
  1  3  1  0
  2  4  1  0
  3  5  2  0
  4  6  1  0
  5  7  1  0
  4  8  2  0
  5  8  1  0
  7  9  1  0
  9 10  1  0
 10 11  1  0
M  END
$$$$
