
     RDKit          3D

 11 12  0  0  0  0  0  0  0  0999 V2000
  138.7086  151.1469  142.6266 C   0  0  0  0  0  0  0  0  0  0  0  0
  138.5250  151.9368  143.5112 C   0  0  0  0  0  0  0  0  0  0  0  0
  137.3811  151.6572  144.3961 C   0  0  0  0  0  0  0  0  0  0  0  0
  139.7008  151.1089  141.6121 C   0  0  0  0  0  0  0  0  0  0  0  0
  139.6260  150.4243  140.3624 C   0  0  0  0  0  0  0  0  0  0  0  0
  138.4083  149.6133  140.3617 C   0  0  0  0  0  0  0  0  0  0  0  0
  137.5986  150.0970  142.5687 C   0  0  0  0  0  0  0  0  0  0  0  0
  137.3381  149.4864  141.3450 C   0  0  0  0  0  0  0  0  0  0  0  0
  136.8391  150.3238  143.7498 C   0  0  0  0  0  0  0  0  0  0  0  0
  136.8733  152.1847  145.5517 C   0  0  0  0  0  0  0  0  0  0  0  0
  140.6559  150.4681  139.2997 C   0  0  0  0  0  0  0  0  0  0  0  0
  1  2  1  0
  2  3  2  0
  1  4  1  0
  4  5  2  0
  5  6  1  0
  1  7  2  0
  6  8  2  0
  7  8  1  0
  3  9  1  0
  7  9  1  0
  3 10  1  0
  5 11  1  0
M  END
$$$$
