
     RDKit          3D

 11 11  0  0  0  0  0  0  0  0999 V2000
  140.3019  150.2145  139.4802 Cl  0  0  0  0  0  0  0  0  0  0  0  0
  138.6758  150.1820  140.5311 C   0  0  0  0  0  0  0  0  0  0  0  0
  137.6364  149.3800  140.0902 C   0  0  0  0  0  0  0  0  0  0  0  0
  138.7467  150.9432  141.6725 C   0  0  0  0  0  0  0  0  0  0  0  0
  136.4509  149.4140  140.9182 C   0  0  0  0  0  0  0  0  0  0  0  0
  136.3992  150.2735  142.0399 C   0  0  0  0  0  0  0  0  0  0  0  0
  135.2012  150.3776  142.8900 C   0  0  0  0  0  0  0  0  0  0  0  0
  135.4919  151.1585  144.1418 C   0  0  0  0  0  0  0  0  0  0  0  0
  137.6430  150.9771  142.4933 C   0  0  0  0  0  0  0  0  0  0  0  0
  134.4453  151.4614  145.0376 C   0  0  0  0  0  0  0  0  0  0  0  0
  134.8511  152.3714  146.2020 C   0  0  0  0  0  0  0  0  0  0  0  0
  1  2  1  0
  2  3  2  0
  2  4  1  0
  3  5  1  0
  5  6  2  0
  6  7  1  0
  7  8  2  3
  4  9  2  0
  6  9  1  0
  8 10  1  0
 10 11  1  0
M  END
$$$$
