
     RDKit          3D

 11 11  0  0  0  0  0  0  0  0999 V2000
  140.3019  150.2145  139.4802 Cl  0  0  0  0  0  0  0  0  0  0  0  0
  138.6758  150.1820  140.5311 C   0  0  0  0  0  0  0  0  0  0  0  0
  137.6364  149.3800  140.0902 C   0  0  0  0  0  0  0  0  0  0  0  0
  138.7467  150.9432  141.6725 C   0  0  0  0  0  0  0  0  0  0  0  0
  137.7505  150.8693  142.6256 C   0  0  0  0  0  0  0  0  0  0  0  0
  136.5540  149.5179  140.9615 C   0  0  0  0  0  0  0  0  0  0  0  0
  137.8486  151.5544  143.9015 C   0  0  0  0  0  0  0  0  0  0  0  0
  136.5632  150.2244  142.1903 C   0  0  0  0  0  0  0  0  0  0  0  0
  136.7362  151.5121  144.7513 C   0  0  0  0  0  0  0  0  0  0  0  0
  136.1995  152.7776  145.2789 C   0  0  0  0  0  0  0  0  0  0  0  0
  136.8649  153.8321  145.4069 C   0  0  0  0  0  0  0  0  0  0  0  0
  1  2  1  0
  2  3  2  0
  2  4  1  0
  4  5  2  0
  3  6  1  0
  5  7  1  0
  5  8  1  0
  6  8  2  0
  7  9  1  0
  9 10  1  0
 10 11  2  0
M  END
$$$$
