
     RDKit          3D

 11 11  0  0  0  0  0  0  0  0999 V2000
  138.9697  151.3146  142.5684 C   0  0  0  0  0  0  0  0  0  0  0  0
  138.6018  152.0883  143.2657 C   0  0  0  0  0  0  0  0  0  0  0  0
  137.6374  151.6902  144.0814 C   0  0  0  0  0  0  0  0  0  0  0  0
  140.0289  151.3257  141.4197 C   0  0  0  0  0  0  0  0  0  0  0  0
  138.3155  150.1048  142.4750 C   0  0  0  0  0  0  0  0  0  0  0  0
  137.1598  150.7310  144.0930 C   0  0  0  0  0  0  0  0  0  0  0  0
  137.1339  152.9250  145.1305 C   0  0  0  0  0  0  0  0  0  0  0  0
  136.1549  150.2313  145.1914 C   0  0  0  0  0  0  0  0  0  0  0  0
  137.4789  149.7109  143.2614 N   0  0  0  0  0  0  0  0  0  0  0  0
  140.0896  150.7149  140.2068 C   0  0  0  0  0  0  0  0  0  0  0  0
  140.2171  151.1112  139.0242 C   0  0  0  0  0  0  0  0  0  0  0  0
  1  2  1  0
  2  3  2  0
  1  4  1  0
  1  5  2  0
  3  6  1  0
  3  7  1  0
  6  8  1  0
  5  9  1  0
  6  9  2  0
  4 10  2  3
 10 11  1  0
M  END
$$$$
